ELEM  O N AR H HE
END
SPECIES ! structure, source of thermo-data, source of transport 
H  ! burcat, chemkin
H2 ! burcat, chemkin
O   O2    H2O    OH    H2O2    HO2   OX   OHX   O2X   O3
AR ! burcat, chemkin 
HE ! burcat, chemkin 
N2 ! burcat, chemkin 
END
REACTIONS

!*********************************************************************
!
! A.KONNOV's detailed reaction mechanism   h/o3 excited 2018
!
!*********************************************************************            
H+H+M=H2+M                     7.000E+17     -1.0         0.0
 H2/0.0/ N2/0.0/ H/0.0/ H2O/14.3/ ! CO/3.0/ CO2/3.0/ 
H+H+H2=H2+H2                   1.000E+17     -0.6         0.0 
H+H+N2=H2+N2                   5.400E+18     -1.3         0.0 
H+H+H=H2+H                     3.200E+15      0.0         0.0 
O+O+M=O2+M                     1.000E+17     -1.0         0.0 
 O/28.8/ O2/8.0/ N2/2.0/ H2O/5.0/ O3/8.0/ ! NO/2.0/ N/2.0/ 
O+H+M=OH+M                     6.750E+18     -1.0         0.0 
 H2O/5.0/ 
H2O+M=H+OH+M                   6.060E+27     -3.312  120770.0
 H2O /0/ H2/3.0/ N2 /2.0/ O2 /1.5/ HE /1.1/ !CH4/7/ CO2 /4/
H2O+H2O=H+OH+H2O               1.000E+26     -2.44   120160.0
H+O2(+M)=HO2(+M)               4.660E+12      0.44        0.0 
    LOW /1.225E+19 -1.2 0.0/ 
    TROE /0.5 1 1E+10/
 AR/0.72/ H2O/16.6/ O2/1.0/ H2/1.5/ HE/0.57/ ! CO2/3.61/ CH4/3.5/  
H2O2(+M)=OH+OH(+M)             2.000E+12      0.9     48750.0 
    LOW /2.49E+24 -2.3 48750.0 /  
    TROE /0.42 1 1E+10/
 H2O/7.5/ H2O2/7.7/ O2/1.2/ N2/1.5/ HE/0.65/ H2/3.7/ !CO2/1.6/ CO/2.8/
O+H2=OH+H                      5.080E+04      2.67     6292.0 
H+O2=OH+O                      1.040E+14      0.0     15286.0 
H2+OH=H2O+H                    2.140E+08      1.52     3450.0 
OH+OH=H2O+O                    2.668E+06      1.82    -1647.0   
HO2+O=OH+O2                    2.850E+10      1.0      -723.9 
H+HO2=OH+OH                    7.080E+13      0.0       300.0 
H2O+O=H+HO2                    2.200E+08      2.0     61600.0 
H2+O2=H+HO2                    7.400E+05      2.43    53500.0 
HO2+OH=H2O+O2                  7.000E+12      0.0     -1093.0 
    DUPLICATE
HO2+OH=H2O+O2                  4.500E+14      0.0     10930.0 
    DUPLICATE
HO2+HO2=H2O2+O2                1.030E+14      0.0     11040.0 
    DUPLICATE
HO2+HO2=H2O2+O2                1.940E+11      0.0     -1409.0 
    DUPLICATE
H2O2+H=HO2+H2                  5.020E+06      2.07     4300.0 
H2O2+H=H2O+OH                  2.030E+07      2.02     2620.0 
H2O2+O=HO2+OH                  9.550E+06      2.0      3970.0 
H2O2+OH=HO2+H2O                1.740E+12      0.0       318.0 
    DUPLICATE
H2O2+OH=HO2+H2O                7.590E+13      0.0      7269.0 
    DUPLICATE 
O2+O+AR=O3+AR                  4.290E+17     -1.5         0.0 
    DUPLICATE
O2+O+AR=O3+AR                  5.100E+21     -3.2         0.0 
    DUPLICATE
O2+O+M=O3+M                    6.530E+17     -1.5         0.0
  AR/0.0/ O2/0.95/ O3/2.5/ O/4.0/
    DUPLICATE
O2+O+M=O3+M                    1.330E+22     -3.3         0.0
  AR/0.0/ O2/1.07/ O3/2.5/ O/4.0/
    DUPLICATE
O3+O=O2+O2                     4.820E+12      0.0      4094.0
O3+O=O2X+O2                    1.440E+11      0.0      4094.0
O+O+M=O2X+M                    7.000E+15     -1.0         0.0
 O/28.8/ O2/8.0/ N2/2.0/ H2O/5.0/ O3/8.0/ ! NO/2.0/ N/2.0/ 
O2X+M=O2+M                     1.800E+06      0.0       400.0
 O/0/ H/0/ AR/0.005/ HE/0.005/ N2/0.002/ H2O/3.3/ H2/2.5/ !CO2/0.01/ CO/5.6/
O2X+O=O2+O                     7.800E+07      0.0         0.0
O2X+H=O2+H                     4.000E+13      0.0      5030.0 
O2X+O+M=O+O2+M                 3.600E+15      0.0         0.0 
  AR/0.63/ 
O2X+O3=O2+O2+O                 3.130E+13      0.0      5644.0
OX+O2X=O+O2                    6.030E+12      0.0         0.0
OX+O2=O+O2X                    1.590E+13      0.0      -139.0 
OX+O2=O+O2                     2.810E+12      0.0      -139.0 
OX+M=O+M                       4.800E+11      0.0         0.0 
  O2/0/ N2/0/ O/10.0/ H2O/3.0/
OX+N2=O+N2                     1.260E+13      0.0      -230.0 
OX+O3=O2+O+O                   7.230E+13      0.0         0.0 
OX+O3=O2+O2                    7.230E+13      0.0         0.0 
H2+O2X=H+HO2                   6.160E+05      2.335   31080.0
H+O2X=OH+O                     3.500E+08      1.45     4508.0 
H+O2X+M=HO2+M                  9.890E+09      2.03     3360.0
HO2+OH=H2O+O2X                 2.140E+06      1.65     2180.0 
OH+O2X=O+HO2                   1.300E+13      0.0     34000.0 
O3+H=OH+O2                     8.430E+13      0.0       934.0 
O3+OH=HO2+O2                   1.000E+12      0.0      1870.0 
O3+HO2=OH+O2+O2                5.850E-04      4.57    -1377.0 
H+HO2=H2O+OX                   2.500E+12      0.0       300.0 
OX+H2=OH+H                     8.100E+13      0.0         0.0 
OX+H2O=OH+OH                   1.000E+14      0.0       -71.0 
O+H+M=OHX+M                    1.500E+13      0.0      5970.0 
   AR/0.35/ H2O/6.5/ O2/0.4/ N2/0.4/
OHX+O2=OH+O2                   8.400E+11      0.5      -482.0 
OHX+N2=OH+N2                   1.080E+11      0.5     -1238.0 
OHX+H2O=OH+H2O                 2.960E+12      0.5      -861.0 
OHX+H2=OH+H2                   3.540E+11      0.5      -444.0 
OHX+OH=OH+OH                   1.500E+12      0.5         0.0 
OHX+H=OH+H                     1.500E+12      0.5         0.0 
OHX+O=OH+O                     1.500E+12      0.5         0.0 
OHX+AR=OH+AR                   2.170E+10      0.5      2060.0 
OHX+H2=H2O+H                   2.600E+12      0.5      -444.0 
OHX+O2=O3+H                    2.520E+11      0.5      -482.0 
OHX+O2=HO2+O                   1.008E+12      0.5      -482.0 
OHX+H2O=H2O2+H                 2.960E+12      0.5      -861.0 
H+O2+H=H2+O2                   8.800E+22     -1.835     800.0
H+O2+H=OH+OH                   4.000E+22     -1.835     800.0
H+O2+O=OH+O2                   7.350E+22     -1.835     800.0
H+O2+OH=H2O+O2                 2.560E+22     -1.835     800.0

END

