!****************************************************************************
! A 188-SPECIES SKELETAL MECHANISM FOR N-HEPTANE OXIDATION
!
! REFERENCES:
! 
! 1. LU T.F., AND LAW C.K., 
!    DIFFUSION COEFFICIENT REDUCTION THROUGH SPECIES BUNDLING,
!    COMBUST. FLAME, 148(3) 117-126, 2007.
!
! 2. YOO C.S., LU T.F., CHEN J.H. AND LAW C.K., 
!    DIRECT NUMERICAL SIMULATIONS OF IGNITION OF A LEAN N-HEPTANE/AIR MIXTURE 
!    WITH TEMPERATURE INHOMOGENEITIES AT CONSTANT VOLUME: PARAMETRIC STUDY,
!    COMBUST. FLAME, DOI: 10.1016/J.COMBUSTFLAME.2011.01.025.
!
!****************************************************************************
                                                                    
ELEMENTS
H C O N AR 
END
SPECIES
H	H2	O	O2
OH	H2O	N2	CO
HCO	CO2	CH3	CH4
HO2	H2O2	CH2O	CH3O
C2H6	C2H4	C2H5	CH2
CH	C2H	C2H2	C2H3
CH3OH	CH2OH	CH2CO	HCCO
PC2H4OH	SC2H4OH	CH3CO	CH2CHO
CH3CHO	C3H4-A	C3H4-P	C3H6
C4H6	NC3H7	IC3H7	IC4H7
IC4H8	C4H7	C4H8-2	C4H8-1
PC4H9	CH3COCH3	CH3COCH2	C2H5CHO
C2H5CO	C5H9	C5H10-1	C5H10-2
BC5H11	AC5H10	BC5H10	IC5H9
C5H11-1	C5H11-2	C2H5O	CH3O2
C2H5O2	CH3O2H	C2H5O2H	C2H3O1-2
CH3CO2	C2H4O2H	O2C2H4OH	CH3CO3
CH3CO3H	C2H3CO	C2H3CHO	C3H5O
C3H6OOH1-2	NC3H7O	NC3H7O2H	NC3H7O2
IC4H8OH	C4H7O	C4H8OOH1-3O2	C4H8OOH1-3
C4H8O1-3	PC4H9O	PC4H9O2H	PC4H9O2
CH3COCH2O2	CH3COCH2O2H	CH3COCH2O	C5H11O2-1
C5H11O2H-1	C5H11O-1	C5H10OOH1-3	C5H10OOH1-4
C5H10OOH1-3O2	C5H10O1-4	C3H5-A	C3H5-T
C3H3	C3H2	CH2-S 	NC4KET13
NC5KET13	IC3H5CHO	TC3H6CHO	IC4H7OH
IC3H6CO	IC3H5CO	TC3H6OH	IC3H5OH
NC3H7CHO	NC3H7CO	CH2CH2COCH3	C2H5COCH2
C2H5COCH3	CH3CHCOCH3	C2H3COCH3	CH3CHCO
C3H6CHO-3	C3H6CHO-2	C2H5CHCO	CH3CHCHO
C2H5COC2H4P	C2H5COC2H3	PC2H4COC2H3	IC3H6CHCOCH2
NC3H7COCH3	NC3H7COCH2	NC4H9CHO	NC4H9CO
AC3H5CHO	C2H3CHCHO	HOCH2O	HOCHO
C6H13-1	C6H13-2	C6H12-1	C6H11
C7H16 	C7H15-1	C7H15-2	C7H15-3
C7H15-4	C7H14-1	C7H14-2	C7H14-3
C7H13	C7H15O2-1	C7H15O2-2	C7H15O2-3
C7H15O2-4	C7H15O2H-2	C7H15O-2	C7H15O-3
C7H15O-4	C7H14OOH1-3	C7H14OOH2-3	C7H14OOH2-4
C7H14OOH2-5	C7H14OOH3-1	C7H14OOH3-2	C7H14OOH3-4
C7H14OOH3-5	C7H14OOH3-6	C7H14OOH4-2	C7H14OOH4-3
C7H14OOH1-3O2	C7H14OOH2-3O2	C7H14OOH2-4O2	C7H14OOH2-5O2
C7H14OOH3-5O2	C7H14OOH3-6O2	C7H14OOH4-2O2	C7H14O1-2
C7H14O1-3	C7H14O1-4	C7H14O2-3	C7H14O2-4
C7H14O2-5	C7H14O3-4	C7H14O3-5	NC7KET13
NC7KET23	NC7KET24	NC7KET25	NC7KET35
NC7KET36	NC7KET42	NC5H11CHO	NC5H11CO
END
REACTIONS
!1
  CH3+H(+M) = CH4(+M) 2.138E+15  -0.40  0.000E+00
           LOW / 3.310E+30 -4.00 2108. /
     TROE/0.0  1.E-15  1.E-15  40./
     H2/2/ H2O/5/ CO/2/ CO2/3/
!2
  CH4+H  =  CH3+H2  1.727E+04  3.00  8.224E+03
    REV /  6.610E+02  3.00  7.744E+03 /
!3
  CH4+OH  =  CH3+H2O  1.930E+05  2.40  2.106E+03
    REV /  3.199E+04  2.40  1.678E+04 /
!4
  CH4+O  =  CH3+OH  3.150E+12  0.50  1.029E+04
    REV /  5.296E+10  0.50  7.715E+03 /
!5
  C2H6+CH3  =  C2H5+CH4  1.510E-07  6.00  6.047E+03
    REV /  9.649E-10  6.56  1.022E+04 /
!6
  HCO+OH  =  CO+H2O  1.020E+14  0.00  0.000E+00
    REV /  2.896E+15  0.00  1.052E+05 /
!7
  CO+OH  =  CO2+H  1.400E+05  1.95 -1.347E+03
    REV /  1.568E+07  1.95  2.099E+04 /
!8
  H+O2  =  O+OH  1.970E+14  0.00  1.654E+04
    REV /  1.555E+13  0.00  4.250E+02 /
!9
  O+H2  =  H+OH  5.080E+04  2.67  6.292E+03
    REV /  2.231E+04  2.67  4.197E+03 /
!10
  O+H2O  =  OH+OH  2.970E+06  2.02  1.340E+04
    REV /  3.013E+05  2.02 -3.850E+03 /
!11
  OH+H2  =  H+H2O  2.160E+08  1.51  3.430E+03
    REV /  9.352E+08  1.51  1.858E+04 /
!12
 HCO+M = H+CO+M 1.860E+17 -1.00 1.700E+04
           REV / 6.467E+13 0.00 -4.420E+02 /
   H2/2.5/ H2O/12/ CO/1.9/ CO2/3.8/
!13
 H2O2+OH = H2O+HO2  1.000E+12   0.00  0.000E+00
           REV / 1.685E+11  0.33 3.146E+04 /
    DUPLICATE
!14
 C2H4+O = CH3+HCO  1.020E+07   1.88  1.790E+02
           REV / 2.851E+08  1.05 3.177E+04 /
!15
 H+C2H4(+M) = C2H5(+M) 1.081E+12   0.45  1.822E+03
           LOW / 1.112E+34 -5.00 4.448E+03 /
  TROE/1.0  1.000E-15  9.500E+01  2.000E+02/
  H2/2/ H2O/5/ CO/2/ CO2/3/
!16
 CH3OH(+M) = CH3+OH(+M) 1.900E+16   0.00  9.173E+04
           LOW / 2.95E+44 -7.35 9.546E+04 /
  TROE/0.414  279.  5459. 1.00E+100/
  H2/2/ H2O/16/ CO/2/ CO2/3/
!17
  C2H6+H  =  C2H5+H2  5.540E+02  3.50  5.167E+03
    REV /  1.355E-01  4.06  8.857E+03 /
!18
  CH3OH+HO2  =  CH2OH+H2O2  3.980E+13  0.00  1.940E+04
    REV /  1.096E+09  1.33  1.125E+04 /
!19
  C2H5+O2  =  C2H4+HO2  1.220E+30  -5.76  1.010E+04
    REV /  1.259E+30  -5.63  2.230E+04 /
!20
  C2H6+OH  =  C2H5+H2O  5.800E+07  1.73  1.160E+03
    REV /  6.142E+04  2.29  2.000E+04 /
!21
  C2H6+O  =  C2H5+OH  1.300E+07  2.13  5.190E+03
    REV /  1.397E+03  2.69  6.785E+03 /
!22
  CH3+HO2  =  CH3O+OH  1.100E+13  0.00  0.000E+00
    REV /  4.780E+14  -0.35  2.455E+04 /
!23
  CO+HO2  =  CO2+OH  3.010E+13  0.00  2.300E+04
    REV /  6.435E+15  -0.33  8.461E+04 /
!24
 CH3+CH3(+M) = C2H6(+M) 9.214E+16  -1.17  6.358E+02
           LOW / 1.135E+36 -5.246 1.705E+03 /
 TROE/0.405 1120. 69.6 1.E+15/
  H2/2/ H2O/5/ CO/2/ CO2/3/
!25
 H2O+M = H+OH+M 1.837E+27 -3.00  1.226E+05
               REV/ 2.250E+22 -2.00  0.000E+00 /
   H2/2.5/ H2O/12/ CO/1.9/ CO2/3.8/
!26
 H+O2(+M) = HO2(+M) 1.475E+12 0.60  0.000E+00
               LOW/ 3.500E+16 -0.41 -1.1160E+03 /
 TROE/5.0000E-01  1.0000E-30  1.0000E+30 1.00E+100/
 H2/2.5/ H2O/12/ CO/1.9/ CO2/3.8/
!27
 CO+O(+M) = CO2(+M) 1.800E+10  0.00  2.384E+03
               LOW/ 1.350E+24 -2.788  4191. /
   H2/2.5/ H2O/12/ CO/1.9/ CO2/3.8/
!28
  CO+O2  =  CO2+O  1.620E+13  0.00  4.770E+04
    REV /  1.433E+14  0.00  5.392E+04 /
!29
  HCO+H  =  CO+H2  7.340E+13  0.00  0.000E+00
    REV /  4.813E+14  0.00  9.000E+04 /
!30
  HCO+O  =  CO+OH  3.020E+13  0.00  0.000E+00
    REV /  8.697E+13  0.00  8.790E+04 /
!31
  CH2O+M  =  HCO+H+M  6.283E+29  -3.57  9.320E+04
    REV /  2.660E+24  -2.57  4.270E+02 /
!32
  CH2O+OH  =  HCO+H2O  3.430E+09  1.18 -4.470E+02
    REV /  1.186E+09  1.18  2.938E+04 /
!33
  CH2O+H  =  HCO+H2  9.334E+08  1.50  2.976E+03
    REV /  7.453E+07  1.50  1.765E+04 /
!34
  CH2O+O  =  HCO+OH  4.160E+11  0.57  2.762E+03
    REV /  1.459E+10  0.57  1.534E+04 /
!35
  CH3+OH  =  CH2O+H2  2.250E+13  0.00  4.300E+03
    REV /  6.756E+14  0.00  7.602E+04 /
!36
  CH3+O  =  CH2O+H  8.000E+13  0.00  0.000E+00
    REV /  1.055E+15  0.00  6.963E+04 /
!37
  CH3+O2  =  CH3O+O  1.995E+18  -1.57  2.921E+04
    REV /  3.585E+18  -1.59 -1.631E+03 /
!38
  CH2O+CH3  =  HCO+CH4  3.636E-06  5.42  9.980E+02
    REV /  7.584E-06  5.42  1.615E+04 /
!39
  HCO+CH3  =  CH4+CO  1.210E+14  0.00  0.000E+00
    REV /  2.073E+16  0.00  9.048E+04 /
!40
 CH3O(+M) = CH2O+H(+M)  5.450E+13   0.00  1.350E+04
                LOW / 2.344E+25 -2.7  3.060E+04 /
!41
 C2H4(+M) = C2H2+H2(+M)  1.800E+13   0.00  7.600E+04
           LOW / 1.500E+15 0.00 5.5443E+04 /
!42
  HO2+O  =  OH+O2  3.250E+13  0.00  0.000E+00
    REV /  7.857E+14  -0.33  5.539E+04 /
!43
  HCO+HO2  =  CH2O+O2  2.974E+10  0.33 -3.861E+03
    REV /  2.050E+13  0.00  3.895E+04 /
!44
  CH3O+O2  =  CH2O+HO2  5.500E+10  0.00  2.424E+03
    REV /  1.318E+09  0.35  3.139E+04 /
!45
  CH3+HO2  =  CH4+O2  3.600E+12  0.00  0.000E+00
    REV /  5.177E+15  -0.33  5.796E+04 /
!46
  HCO+O2  =  CO+HO2  7.580E+12  0.00  4.100E+02
    REV /  9.029E+11  0.33  3.293E+04 /
!47
  HO2+H  =  OH+OH  7.080E+13  0.00  3.000E+02
    REV /  1.352E+14  -0.33  3.957E+04 /
!48
  HO2+H  =  H2+O2  1.660E+13  0.00  8.200E+02
    REV /  9.138E+14  -0.33  5.830E+04 /
!49
  HO2+OH  =  H2O+O2  2.890E+13  0.00 -5.000E+02
    REV /  6.888E+15  -0.33  7.214E+04 /
!50
  H2O2+O2  =  HO2+HO2  5.942E+17  -0.66  5.315E+04
    REV /  4.200E+14  0.00  1.198E+04 /
    DUPLICATE
!51
 OH+OH(+M) = H2O2(+M) 1.236E+14   -.37  0.000E+00
           LOW / 3.041E+30 -4.63 2049. /
 TROE /0.47 100. 2000. 1.0E+15/
 H2/2.5/ H2O/12/ CO/1.9/ CO2/3.8/
!52
  H2O2+H  =  H2O+OH  2.410E+13  0.00  3.970E+03
    REV /  7.750E+12  0.00  7.470E+04 /
!53
  CH4+HO2  =  CH3+H2O2  3.420E+11  0.00  1.929E+04
    REV /  3.365E+11  -0.33  2.502E+03 /
!54
  CH2O+HO2  =  HCO+H2O2  5.820E-03  4.53  6.557E+03
    REV /  1.194E-02  4.20  4.921E+03 /
!55
  OH+M = O+H+M  3.909E+22  -2.00  1.053E+05
        REV /  4.720E+18  -1.00  0.000E+00 /
H2/2.5/ H2O/12/ CO/1.9/ CO2/3.8/
!56
 O2+M = O+O+M 6.473E+20 -1.50 1.215E+05
           REV / 6.170E+15 -0.50 0.000E+00 /
H2/2.5/ H2O/12/ CO/1.9/ CO2/3.8/
!57
 H2+M = H+H+M 4.570E+19 -1.40  1.044E+05
               REV/ 2.423E+15 -0.40 -3.040E+03 /
H2/2.5/ H2O/12/ CO/1.9/ CO2/3.8/
!58
 C2H3+H(+M) = C2H4(+M) 6.100E+12 0.27  2.800E+02
              LOW / 9.800E+29 -3.86 3.320E+03 /
 TROE /0.782 208. 2663. 6095./
!59
 C2H5+C2H3 = C2H4+C2H4 5.765E+14 -0.63 2.490E+03
                REV/ 4.820E+14  0.00 7.153E+04 /
!60
 C2H2+H(+M) = C2H3(+M) 3.110E+11   0.58  2.589E+03
               LOW/ 2.254E+40 -7.269  6577. /
  TROE/ 1.0 1.E-15 675. 1.E+15/
  H2/2/ H2O/5/ CO/2/ CO2/3/
!61
  C2H4+H  =  C2H3+H2  8.420E-03  4.62  2.583E+03
    REV /  5.723E-01  3.79  3.233E+03 /
!62
  C2H4+OH  =  C2H3+H2O  2.050E+13  0.00  5.950E+03
    REV /  6.033E+15  -0.83  2.176E+04 /
!63
  C2H2+M  =  C2H+H+M  4.200E+16  0.00  1.070E+05
    REV /  7.130E+07  2.08 -2.891E+04 /
!64
  C2H2+O2  =  HCCO+OH  2.000E+08  1.50  3.010E+04
    REV /  2.232E+05  1.50  2.540E+04 /
!65
  CH2+O2  =  CO+H2O  7.280E+19  -2.54  1.809E+03
    REV /  8.508E+20  -2.54  1.798E+05 /
!66
  C2H2+OH  =  C2H+H2O  3.370E+07  2.00  1.400E+04
    REV /  4.671E+03  3.08  6.850E+02 /
!67
  O+C2H2  =  C2H+OH  3.160E+15  -0.60  1.500E+04
    REV /  4.443E+10  0.48 -1.556E+04 /
!68
  C2H2+O  =  CH2+CO  6.120E+06  2.00  1.900E+03
    REV /  1.152E+06  2.00  5.257E+04 /
!69
  C2H+O2  =  HCO+CO  2.410E+12  0.00  0.000E+00
    REV /  1.328E+16  -1.08  1.541E+05 /
!70
  C2H+O  =  CO+CH  1.810E+13  0.00  0.000E+00
    REV /  7.478E+16  -1.08  8.213E+04 /
!71
  CH2+O2  =  HCO+OH  1.290E+20  -3.30  2.840E+02
    REV /  5.310E+19  -3.30  7.317E+04 /
!72
  CH2+O  =  CO+H+H  5.000E+13  0.00  0.000E+00
    REV /  0.000E+00  0.00  0.000E+00 /
!73
  CH2+H  =  CH+H2  1.000E+18  -1.56  0.000E+00
    REV /  7.026E+17  -1.56  2.990E+03 /
!74
  CH2+OH  =  CH+H2O  1.130E+07  2.00  3.000E+03
    REV /  3.437E+07  2.00  2.114E+04 /
!75
  CH2+O2  =  CO2+H+H  3.290E+21  -3.30  2.868E+03
    REV /  0.000E+00  0.00  0.000E+00 /
!76
  CH+O2  =  HCO+O  3.300E+13  0.00  0.000E+00
    REV /  4.402E+13  0.00  7.199E+04 /
!77
  CH3OH+OH  =  CH2OH+H2O  7.100E+06  1.80 -5.960E+02
    REV /  3.293E+01  3.46  2.272E+04 /
!78
  CH3OH+H  =  CH3O+H2  3.600E+12  0.00  6.095E+03
    REV /  7.467E+12  -0.02  7.825E+03 /
!79
  CH3OH+H  =  CH2OH+H2  1.440E+13  0.00  6.095E+03
    REV /  1.543E+07  1.66  1.425E+04 /
!80
  CH3OH+CH3  =  CH2OH+CH4  3.190E+01  3.17  7.172E+03
    REV /  8.927E-04  4.83  1.581E+04 /
!81
  CH3OH+O  =  CH2OH+OH  3.880E+05  2.50  3.080E+03
    REV /  1.826E-01  4.16  9.143E+03 /
!82
  CH2OH+O2  =  CH2O+HO2  6.510E+05  2.27 -7.700E+02
    REV /  3.020E+10  0.94  2.177E+04 /
!83
 CH2OH(+M) = CH2O+H(+M) 2.800E+14  -0.73  3.282E+04
           LOW / 6.010E+33 -5.39 3.620E+04 /
      TROE/ 0.96 67.6 1855. 7543./
!84
 C2H3+O2 = C2H2+HO2 2.120E-06 6.00 9.484E+03
           REV / 1.114E-07 6.33 1.757E+04 /
!85
  H2O2+O  =  OH+HO2  9.550E+06  2.00  3.970E+03
    REV /  1.632E+05  2.33  1.818E+04 /
!86
  C2H2+O  =  HCCO+H  1.430E+07  2.00  1.900E+03
    REV /  2.021E+05  2.00  1.331E+04 /
!87
  C2H2+OH  =  CH2CO+H  2.190E-04  4.50 -1.000E+03
    REV /  2.161E-03  4.50  1.966E+04 /
!88
  CH2CO+H  =  CH3+CO  1.100E+13  0.00  3.400E+03
    REV /  2.400E+12  0.00  4.020E+04 /
!89
  CH2CO+O  =  CH2+CO2  1.750E+12  0.00  1.350E+03
    REV /  3.739E+12  0.00  5.369E+04 /
!90
  CH2+O2  =  CH2O+O  3.290E+21  -3.30  2.868E+03
    REV /  3.862E+22  -3.30  6.318E+04 /
!91
 CH2CO(+M) = CH2+CO(+M) 3.000E+14 0.00 7.098E+04
                LOW / 3.600E+15 0.00  5.927E+04 /
!92
  CH2CO+O  =  HCCO+OH  1.000E+13  0.00  8.000E+03
    REV /  1.432E+10  0.00 -1.255E+03 /
!93
  CH2CO+OH  =  HCCO+H2O  1.000E+13  0.00  2.000E+03
    REV /  1.412E+11  0.00  9.995E+03 /
!94
  CH2CO+H  =  HCCO+H2  2.000E+14  0.00  8.000E+03
    REV /  6.522E+11  0.00  8.400E+02 /
!95
  HCCO+OH  =  HCO+HCO  1.000E+13  0.00  0.000E+00
    REV /  2.411E+14  0.00  4.036E+04 /
!96
  HCCO+H  =  CH2-S +CO  1.100E+14  0.00  0.000E+00
    REV /  2.046E+12  0.89  2.783E+04 /
!97
  HCCO+O  =  H+CO+CO  8.000E+13  0.00  0.000E+00
    REV /  0.000E+00  0.00  0.000E+00 /
!98
  C2H6+O2  =  C2H5+HO2  6.030E+13  0.00  5.187E+04
    REV /  2.679E+08  0.89 -1.922E+03 /
!99
  C2H6+HO2  =  C2H5+H2O2  1.320E+13  0.00  2.047E+04
    REV /  8.298E+10  0.24  7.852E+03 /
!100
  CH2+O2  =  CO2+H2  1.010E+21  -3.30  1.508E+03
    REV /  3.054E+23  -3.30  1.867E+05 /
!101
  CH3+C2H3  =  CH4+C2H2  3.920E+11  0.00  0.000E+00
    REV /  2.962E+13  0.00  6.605E+04 /
!102
  CH3+C2H5  =  CH4+C2H4  1.950E+13  -0.50  0.000E+00
    REV /  2.895E+16  -0.70  7.017E+04 /
!103
  CH3OH+CH2O  =  CH3O+CH3O  3.835E+13  0.05  8.472E+04
    REV /  6.030E+13  0.00  0.000E+00 /
!104
  CH2O+CH3O  =  CH3OH+HCO  1.020E+11  0.00  2.980E+03
    REV /  3.926E+09  0.02  1.592E+04 /
!105
  CH4+CH3O  =  CH3+CH3OH  1.570E+11  0.00  8.842E+03
    REV /  2.897E+09  0.02  6.632E+03 /
!106
  C2H6+CH3O  =  C2H5+CH3OH  2.410E+11  0.00  7.090E+03
    REV /  2.842E+07  0.59  9.050E+03 /
!107
  C2H3+H  =  C2H2+H2  2.000E+13  0.00  2.500E+03
    REV /  1.331E+13  0.00  6.808E+04 /
!108
  CH3O+CH3OH  =  CH2OH+CH3OH  3.000E+11  0.00  4.074E+03
    REV /  1.549E+05  1.68  1.050E+04 /
!109
  CH3OH+OH  =  CH3O+H2O  1.000E+06  2.10  4.967E+02
    REV /  8.981E+06  2.08  1.738E+04 /
!110
  C2H5+H  =  CH3+CH3  3.610E+13  0.00  0.000E+00
    REV /  5.446E+16  -1.03  1.698E+04 /
!111
  C2H3+O2  =  CH2O+HCO  1.700E+29  -5.31  6.500E+03
    REV /  1.657E+29  -5.31  9.305E+04 /
!112
  C2H6  =  C2H5+H  2.783E+21  -1.56  1.038E+05
    REV /  3.610E+13  0.00  0.000E+00 /
!113
  PC2H4OH  =  C2H4+OH  1.293E+12  -0.37  2.685E+04
    REV /  9.930E+11  0.00 -9.600E+02 /
!114
  SC2H4OH+M  =  CH3CHO+H+M  1.000E+14  0.00  2.500E+04
    REV /  4.714E+10  0.91 -3.630E+03 /
!115
  C2H4+CH3  =  C2H3+CH4  6.620E+00  3.70  9.500E+03
    REV /  1.440E+00  4.02  5.472E+03 /
!116
 CH3CO(+M) = CH3+CO(+M) 3.000E+12 0.00 1.672E+04
           LOW / 1.200E+15  0.00 1.2518E+04 /
!117
  CH3CHO  =  CH3+HCO  2.614E+15  0.15  8.055E+04
    REV /  2.000E+13  0.00  0.000E+00 /
!118
  CH3CHO+O2  =  CH3CO+HO2  3.010E+13  0.00  3.915E+04
    REV /  8.552E+10  0.32 -1.940E+03 /
!119
  CH3CHO+OH  =  CH3CO+H2O  2.000E+06  1.80  1.300E+03
    REV /  1.354E+06  1.79  3.285E+04 /
!120
  CH3CHO+H  =  CH3CO+H2  1.340E+13  0.00  3.300E+03
    REV /  2.096E+12  -0.01  1.969E+04 /
!121
  CH3CHO+O  =  CH3CO+OH  5.940E+12  0.00  1.868E+03
    REV /  4.080E+11  -0.01  1.617E+04 /
!122
  CH3CHO+HO2  =  CH3CO+H2O2  3.010E+12  0.00  1.192E+04
    REV /  1.210E+13  -0.34  1.201E+04 /
!123
  CH3CHO+CH3  =  CH3CO+CH4  2.608E+06  1.78  5.911E+03
    REV /  1.066E+07  1.77  2.278E+04 /
!124
  C2H2+CH3  =  C3H4-P+H  1.211E+17  -1.20  1.668E+04
    REV /  1.000E+14  0.00  4.000E+03 /
!125
  C3H5-A  =  C2H2+CH3  2.397E+48  -9.90  8.208E+04
    REV /  2.610E+46  -9.82  3.695E+04 /
!126
  C3H6  =  C2H3+CH3  2.730E+62 -13.28  1.232E+05
    REV /  4.712E+59 -13.19  2.954E+04 /
!127
  C2H2+CH3  =  C3H4-A+H  6.740E+19  -2.08  3.159E+04
    REV /  1.149E+16  -0.70  1.579E+04 /
!128
  IC4H8+C3H5-T  =  IC4H7+C3H6  7.940E+11  0.00  2.050E+04
    REV /  5.592E+20  -1.27  8.017E+04 /
!129
  C3H6  =  C3H5-A+H  2.010E+61 -13.26  1.185E+05
    REV /  4.887E+56 -12.25  2.808E+04 /
!130
  C3H6+O  =  CH2CO+CH3+H  2.500E+07  1.76  7.600E+01
    REV /  1.000E+00  0.00  0.000E+00 /
!131
  C3H6+O  =  C2H5+HCO  1.580E+07  1.76 -1.216E+03
    REV /  1.402E+05  1.88  2.651E+04 /
!132
  C3H6+O  =  CH3CHCO+H+H  2.500E+07  1.76  7.600E+01
    REV /  0.000E+00  0.00  0.000E+00 /
!133
  C3H6+HO2  =  C3H5-A+H2O2  1.500E+11  0.00  1.419E+04
    REV /  5.867E+05  1.33  9.759E+03 /
!134
  C3H6+HO2  =  C3H5-T+H2O2  3.000E+09  0.00  9.930E+03
    REV /  9.234E+03  1.27 -1.406E+04 /
!135
  C3H6+OH  =  C3H5-A+H2O  3.120E+06  2.00 -2.980E+02
    REV /  6.194E+06  2.01  3.188E+04 /
!136
  C4H6  =  C2H3+C2H3  4.027E+19  -1.00  9.815E+04
    REV /  1.260E+13  0.00  0.000E+00 /
!137
  C4H6+OH  =  C2H5+CH2CO  1.000E+12  0.00  0.000E+00
    REV /  3.730E+12  0.00  3.002E+04 /
!138
  C4H6+OH  =  CH2O+C3H5-A  1.000E+12  0.00  0.000E+00
    REV /  3.501E+06  0.00  7.106E+04 /
!139
  C4H6+OH  =  C2H3+CH3CHO  1.000E+12  0.00  0.000E+00
    REV /  5.437E+11  0.00  1.855E+04 /
!140
  C4H6+O  =  C2H4+CH2CO  1.000E+12  0.00  0.000E+00
    REV /  6.377E+11  0.00  9.434E+04 /
!141
  C4H6+O  =  CH2O+C3H4-A  1.000E+12  0.00  0.000E+00
    REV /  1.075E+12  0.00  7.905E+04 /
!142
  C2H4+O2  =  C2H3+HO2  4.000E+13  0.00  5.820E+04
    REV /  4.939E+13  -0.50  1.368E+03 /
!143
  CH2O+M  =  CO+H2+M  1.826E+32  -4.42  8.712E+04
    REV /  5.070E+27  -3.42  8.435E+04 /
!144
  NC3H7  =  CH3+C2H4  2.284E+14  -0.55  2.840E+04
    REV /  4.100E+11  0.00  7.204E+03 /
!145
  NC3H7  =  H+C3H6  2.667E+15  -0.64  3.682E+04
    REV /  1.000E+13  0.00  2.500E+03 /
!146
  NC3H7+O2  =  C3H6+HO2  3.000E+11  0.00  3.000E+03
    REV /  2.000E+11  0.00  1.750E+04 /
!147
  C2H4+CH3O  =  C2H3+CH3OH  1.200E+11  0.00  6.750E+03
    REV /  1.000E+10  0.00  9.000E+03 /
!148
  C3H6+OH  =  C3H5-T+H2O  1.110E+06  2.00  1.451E+03
    REV /  3.276E+03  2.69  1.231E+04 /
!149
  C3H6+O  =  C3H5-A+OH  5.240E+11  0.70  5.884E+03
    REV /  1.055E+11  0.71  2.082E+04 /
!150
  C3H6+O  =  C3H5-T+OH  6.030E+10  0.70  7.632E+03
    REV /  1.805E+07  1.39  1.243E+03 /
!151
  C3H6+H  =  C3H5-A+H2  1.730E+05  2.50  2.492E+03
    REV /  7.933E+04  2.51  1.952E+04 /
!152
  C3H6+H  =  C2H4+CH3  4.830E+33  -5.81  1.850E+04
    REV /  2.313E+33  -5.90  3.162E+04 /
!153
  IC3H7  =  H+C3H6  8.569E+18  -1.57  4.034E+04
    REV /  1.300E+13  0.00  1.560E+03 /
!154
  IC3H7+H  =  C2H5+CH3  2.000E+13  0.00  0.000E+00
    REV /  4.822E+09  0.69  1.209E+04 /
!155
  IC3H7+O2  =  C3H6+HO2  4.500E+11  0.00  5.020E+03
    REV /  2.000E+11  0.00  1.750E+04 /
!156
  IC4H7  =  C3H4-A+CH3  1.230E+47  -9.74  7.426E+04
    REV /  3.017E+41  -8.70  2.662E+04 /
!157
  IC4H8  =  C3H5-T+CH3  1.920E+66 -14.22  1.281E+05
    REV /  2.089E+59 -13.23  2.953E+04 /
!158
  IC4H8  =  IC4H7+H  3.070E+55 -11.49  1.143E+05
    REV /  3.300E+52 -11.10  2.446E+04 /
!159
  BC5H10  =  CH3+C4H7  1.000E+16  0.00  7.100E+04
    REV /  1.000E+13  0.00  0.000E+00 /
!160
  IC4H8+O  =  CH2CO+CH3+CH3  3.330E+07  1.76  7.600E+01
    REV /  0.000E+00  0.00  0.000E+00 /
!161
  IC4H8+H  =  IC4H7+H2  3.400E+05  2.50  2.492E+03
    REV /  6.891E+06  1.89  2.010E+04 /
!162
  IC4H8+O  =  IC4H7+OH  1.206E+11  0.70  7.633E+03
    REV /  1.074E+12  0.09  2.315E+04 /
!163
  IC4H8+OH  =  IC4H7+H2O  5.200E+06  2.00 -2.980E+02
    REV /  4.563E+08  1.39  3.247E+04 /
!164
  IC4H8+O  =  IC3H7+HCO  1.580E+07  1.76 -1.216E+03
    REV /  1.750E+09  0.49  2.758E+04 /
!165
  IC4H8+CH3O2  =  IC4H7+CH3O2H  1.928E+04  2.60  1.391E+04
    REV /  2.091E+07  1.49  1.219E+04 /
!166
  IC4H8+CH3  =  IC4H7+CH4  4.420E+00  3.50  5.675E+03
    REV /  2.340E+03  2.89  2.377E+04 /
!167
  IC4H8+HO2  =  IC4H7+H2O2  1.928E+04  2.60  1.391E+04
    REV /  1.004E+07  1.66  1.521E+04 /
!168
  C5H9  =  C3H5-A+C2H4  2.500E+13  0.00  4.500E+04
    REV /  0.000E+00  0.00  0.000E+00 /
!169
  C5H9  =  C4H6+CH3  1.339E+15  -0.52  3.832E+04
    REV /  1.750E+11  0.00  7.600E+03 /
!170
  C4H7  =  C4H6+H  1.200E+14  0.00  4.930E+04
    REV /  4.000E+13  0.00  1.300E+03 /
!171
  C4H7  =  C2H4+C2H3  1.000E+11  0.00  3.700E+04
    REV /  5.000E+10  0.00  7.000E+03 /
!172
  C4H7+C3H6  =  C4H8-2+C3H5-A  1.000E+11  0.00  1.590E+04
    REV /  1.000E+11  0.00  1.500E+04 /
!173
  C4H8-1+C4H6  =  C4H7+C4H7  2.350E+12  0.00  4.672E+04
    REV /  1.600E+12  0.00  0.000E+00 /
!174
  C4H8-2+C4H6  =  C4H7+C4H7  2.350E+12  0.00  4.672E+04
    REV /  1.600E+12  0.00  0.000E+00 /
!175
  C4H7+CH3  =  C4H6+CH4  8.000E+12  0.00  0.000E+00
    REV /  7.050E+13  0.00  5.728E+04 /
!176
  C3H5-A+C4H7  =  C3H6+C4H6  6.310E+12  0.00  0.000E+00
    REV /  1.000E+10  0.00  5.000E+04 /
!177
  C4H7+O2  =  C4H6+HO2  1.000E+09  0.00  0.000E+00
    REV /  1.000E+11  0.00  1.700E+04 /
!178
  H+C4H7  =  C4H6+H2  3.160E+13  0.00  0.000E+00
    REV /  1.066E+13  0.00  5.681E+04 /
!179
  C2H5+C4H7  =  C4H6+C2H6  3.980E+12  0.00  0.000E+00
    REV /  3.211E+12  0.00  4.984E+04 /
!180
  C2H5+C4H7  =  C2H4+C4H8-1  9.240E+06  1.50 -9.620E+02
    REV /  7.807E+02  2.91  5.096E+04 /
!181
  C2H5+C4H7  =  C2H4+C4H8-2  5.000E+11  0.00  0.000E+00
    REV /  8.478E+11  0.00  5.633E+04 /
!182
  C2H3+C4H7  =  C2H4+C4H6  3.980E+12  0.00  0.000E+00
    REV /  1.157E+13  0.00  5.771E+04 /
!183
  C4H8-2  =  H+C4H7  4.107E+18  -1.00  9.735E+04
    REV /  5.000E+13  0.00  0.000E+00 /
!184
  C4H8-2+CH3  =  C4H7+CH4  1.000E+11  0.00  8.200E+03
    REV /  6.000E+11  0.00  1.876E+04 /
!185
  C4H8-2+H  =  C4H7+H2  5.000E+13  0.00  3.800E+03
    REV /  3.160E+13  0.00  2.230E+04 /
!186
  C4H8-2+OH  =  C2H5+CH3CHO  2.600E+13  0.00  0.000E+00
    REV /  2.430E+13  0.00  1.993E+04 /
!187
  C4H8-2+O  =  IC3H7+HCO  2.790E+06  2.12 -1.775E+03
    REV /  1.050E+05  2.12  2.404E+04 /
!188
  C4H8-2+OH  =  C4H7+H2O  3.900E+13  0.00  2.217E+03
    REV /  4.772E+12  0.00  2.647E+04 /
!189
  C4H8-2+O  =  C2H4+CH3CHO  4.640E+05  2.12 -1.775E+03
    REV /  7.400E+04  2.12  8.248E+04 /
!190
  C4H8-2+HO2  =  C4H7+H2O2  3.200E+12  0.00  1.490E+04
    REV /  1.585E+11  0.00  1.470E+04 /
!191
  C4H8-2+O2  =  C4H7+HO2  8.000E+13  0.00  3.540E+04
    REV /  3.000E+11  0.00  0.000E+00 /
!192
  C4H8-1  =  C3H5-A+CH3  5.000E+15  0.00  7.100E+04
    REV /  5.000E+12  0.00  0.000E+00 /
!193
  C4H8-1  =  C2H3+C2H5  1.000E+19  -1.00  9.677E+04
    REV /  9.000E+12  0.00  0.000E+00 /
!194
  C4H8-1  =  H+C4H7  4.107E+18  -1.00  9.735E+04
    REV /  5.000E+13  0.00  0.000E+00 /
!195
  C4H8-1+CH3  =  C4H7+CH4  1.000E+11  0.00  7.300E+03
    REV /  6.000E+11  0.00  1.786E+04 /
!196
  C4H8-1+H  =  C4H7+H2  5.000E+13  0.00  3.900E+03
    REV /  4.000E+13  0.00  2.520E+04 /
!197
  C4H8-1+OH  =  C4H7+H2O  2.250E+13  0.00  2.217E+03
    REV /  4.772E+12  0.00  2.647E+04 /
!198
  C4H8-1+C3H5-A  =  C4H7+C3H6  7.900E+10  0.00  1.240E+04
    REV /  1.000E+11  0.00  1.750E+04 /
!199
  C4H8-1+HO2  =  C4H7+H2O2  1.400E+12  0.00  1.490E+04
    REV /  3.160E+11  0.00  1.300E+04 /
!200
  C4H8-1+O2  =  C4H7+HO2  2.700E+13  0.00  3.320E+04
    REV /  3.000E+11  0.00  0.000E+00 /
!201
  PC4H9  =  C2H5+C2H4  7.497E+17  -1.41  2.958E+04
    REV /  3.300E+11  0.00  7.200E+03 /
!202
  PC4H9  =  C4H8-1+H  1.159E+17  -1.17  3.816E+04
    REV /  1.000E+13  0.00  2.900E+03 /
!203
  PC4H9+O2  =  C4H8-1+HO2  3.000E-19  0.00  3.000E+03
    REV /  2.000E-19  0.00  1.750E+04 /
!204
  IC4H8+H  =  C3H6+CH3  5.680E+33  -5.72  2.000E+04
    REV /  1.710E+34  -6.42  3.316E+04 /
!205
  CH3COCH3  =  CH3CO+CH3  1.219E+23  -1.99  8.395E+04
    REV /  1.000E+13  0.00  0.000E+00 /
!206
  CH3COCH3+OH  =  CH3COCH2+H2O  3.380E+07  1.74  8.300E+02
    REV /  7.608E+03  2.60  2.326E+04 /
!207
  CH3COCH3+H  =  CH3COCH2+H2  2.300E+05  2.72  6.260E+03
    REV /  1.196E+01  3.58  1.354E+04 /
!208
  CH3COCH3+O  =  CH3COCH2+OH  5.130E+11  0.21  4.890E+03
    REV /  1.171E+07  1.08  1.007E+04 /
!209
  CH3COCH3+CH3  =  CH3COCH2+CH4  3.960E+11  0.00  9.784E+03
    REV /  5.378E+08  0.86  1.754E+04 /
!210
  CH3COCH3+CH3O  =  CH3COCH2+CH3OH  4.340E+11  0.00  6.460E+03
    REV /  1.088E+07  0.89  1.201E+04 /
!211
  CH3COCH2  =  CH2CO+CH3  1.000E+14  0.00  3.100E+04
    REV /  1.000E+11  0.00  6.000E+03 /
!212
  CH3COCH3+O2  =  CH3COCH2+HO2  6.030E+13  0.00  4.850E+04
    REV /  5.695E+07  1.19 -1.706E+03 /
!213
  CH3COCH3+HO2  =  CH3COCH2+H2O2  1.700E+13  0.00  2.046E+04
    REV /  2.272E+10  0.54  1.143E+04 /
!214
  C2H5CO  =  C2H5+CO  1.834E+15  -0.73  1.291E+04
    REV /  1.510E+11  0.00  4.810E+03 /
!215
  C2H5CHO+H  =  C2H5CO+H2  4.000E+13  0.00  4.200E+03
    REV /  5.854E+12  0.00  2.059E+04 /
!216
  C2H5CHO+O  =  C2H5CO+OH  5.000E+12  0.00  1.790E+03
    REV /  3.214E+11  0.00  1.608E+04 /
!217
  C2H5CHO+OH  =  C2H5CO+H2O  2.690E+10  0.76 -3.400E+02
    REV /  1.705E+10  0.76  3.120E+04 /
!218
  C2H5CHO+CH3  =  C2H5CO+CH4  2.608E+06  1.78  5.911E+03
    REV /  9.972E+06  1.78  2.278E+04 /
!219
  C2H5CHO+HO2  =  C2H5CO+H2O2  2.800E+12  0.00  1.360E+04
    REV /  1.053E+13  -0.33  1.368E+04 /
!220
  C2H5CHO+CH3O  =  C2H5CO+CH3OH  1.000E+12  0.00  3.300E+03
    REV /  7.056E+10  0.02  1.796E+04 /
!221
  C2H5CHO+C2H5  =  C2H5CO+C2H6  1.000E+12  0.00  8.000E+03
    REV /  5.984E+14  -0.57  2.070E+04 /
!222
  C2H5CHO  =  C2H5+HCO  9.850E+18  -0.73  8.171E+04
    REV /  1.810E+13  0.00  0.000E+00 /
!223
  C2H5CHO+O2  =  C2H5CO+HO2  1.005E+13  0.00  4.070E+04
    REV /  2.672E+10  0.33 -3.960E+02 /
!224
  C2H5CHO+C2H3  =  C2H5CO+C2H4  1.700E+12  0.00  8.440E+03
    REV /  3.661E+09  0.83  2.418E+04 /
!225
  C2H5CHO+C3H5-A  =  C2H5CO+C3H6  1.700E+12  0.00  8.440E+03
    REV /  1.000E+13  0.00  2.800E+04 /
!226
  C5H10-1  =  C2H5+C3H5-A  9.173E+20  -1.63  7.399E+04
    REV /  4.000E+12  0.00 -5.960E+02 /
!227
  C5H10-1+H  =  C5H9+H2  2.800E+13  0.00  4.000E+03
    REV /  1.000E+12  0.00  1.400E+04 /
!228
  C5H10-1+O  =  C5H9+OH  2.540E+05  2.56 -1.130E+03
    REV /  7.000E+11  0.00  2.990E+04 /
!229
  C5H10-1+O  =  PC4H9+HCO  1.000E+11  0.00  0.000E+00
    REV /  0.000E+00  0.00  0.000E+00 /
!230
  C5H10-1+O  =  NC3H7+CH3CO  1.000E+11  0.00  0.000E+00
    REV /  0.000E+00  0.00  0.000E+00 /
!231
  C5H10-1+OH  =  C5H9+H2O  5.120E+06  2.00 -2.980E+02
    REV /  2.060E+07  2.16  3.497E+04 /
!232
  C5H10-1+OH  =  PC4H9+CH2O  1.000E+11  0.00  0.000E+00
    REV /  0.000E+00  0.00  0.000E+00 /
!233
  C5H10-1+OH  =  NC3H7+CH3CHO  1.000E+11  0.00  0.000E+00
    REV /  0.000E+00  0.00  0.000E+00 /
!234
  C5H10-1+CH3  =  C5H9+CH4  1.000E+11  0.00  7.300E+03
    REV /  6.000E+11  0.00  1.790E+04 /
!235
  H2O2+H  =  H2+HO2  4.820E+13  0.00  7.950E+03
    REV /  1.875E+12  0.33  2.426E+04 /
!236
  HCO+O  =  CO2+H  3.000E+13  0.00  0.000E+00
    REV /  9.677E+15  0.00  1.102E+05 /
!237
  CH3+M  =  CH2+H+M  1.968E+16  0.00  9.252E+04
    REV /  2.107E+11  1.00 -1.962E+04 /
!238
  CH3+H  =  CH2+H2  9.000E+13  0.00  1.510E+04
    REV /  1.818E+13  0.00  1.040E+04 /
!239
  CH3+OH  =  CH2+H2O  3.000E+06  2.00  2.500E+03
    REV /  2.623E+06  2.00  1.296E+04 /
!240
  CH+CH4  =  C2H4+H  6.000E+13  0.00  0.000E+00
    REV /  3.573E+14  0.00  5.548E+04 /
!241
 CH3OH(+M) = CH2OH+H(+M) 2.690E+16 -0.08 9.894E+04
           LOW / 2.34E+40 -6.33  1.031E+05 /
          TROE/ 0.773  693.  5333. 1.00E+100/
!242
  CH3CO+H  =  CH2CO+H2  2.000E+13  0.00  0.000E+00
    REV /  5.626E+17  -1.13  6.370E+04 /
!243
  CH3CO+O  =  CH2CO+OH  2.000E+13  0.00  0.000E+00
    REV /  5.951E+18  -1.13  1.207E+05 /
!244
  CH3CO+CH3  =  CH2CO+CH4   5.000E+13  0.00  0.000E+00
    REV /  8.197E+17  -0.67  7.983E+04 /
!245
  C2H4+O  =  CH2CHO+H  3.390E+06  1.88  1.790E+02
    REV /  9.481E+06  1.79  1.605E+04 /
!246
  C2H5+O  =  CH3CHO+H  5.000E+13  0.00  0.000E+00
    REV /  5.505E+14  0.11  7.439E+04 /
!247
  C2H6+CH   =  C2H5+CH2   1.100E+14  0.00 -2.600E+02
    REV /  3.829E+10  0.56  4.400E+02 /
!248
  CH2OH+CH2O  =  CH3OH+HCO  1.292E-01  4.56  6.596E+03
    REV /  9.630E+03  2.90  1.311E+04 /
!249
  C3H6+O2  =  C3H5-T+HO2  1.400E+12  0.00  6.070E+04
    REV /  1.734E+07  1.01 -1.074E+03 /
!250
  AC5H10  =  IC4H7+CH3  7.127E+16  -0.65  7.354E+04
    REV /  2.550E+13  -0.32 -1.310E+02 /
!251
  C2H3+C2H4  =  C4H6+H  5.000E+11  0.00  7.300E+03
    REV /  1.000E+13  0.00  4.700E+03 /
!252
  BC5H11  =  IC4H8+CH3  1.033E+14  -0.32  2.854E+04
    REV /  3.300E+11  0.00  7.200E+03 /
!253
  BC5H11  =  AC5H10+H  1.042E+15  -0.39  3.870E+04
    REV /  1.000E+13  0.00  1.200E+03 /
!254
  BC5H11  =  BC5H10+H  2.976E+15  -0.63  3.744E+04
    REV /  1.000E+13  0.00  2.900E+03 /
!255
  BC5H11+O2  =  AC5H10+HO2  9.000E-19  0.00  5.020E+03
    REV /  2.000E-19  0.00  1.750E+04 /
!256
  BC5H11+O2  =  BC5H10+HO2  3.000E-19  0.00  3.000E+03
    REV /  2.000E-19  0.00  1.750E+04 /
!257
  AC5H10+OH  =  IC5H9+H2O  1.000E+12  0.00  1.230E+03
    REV /  5.000E+12  0.00  2.650E+04 /
!258
  BC5H10+OH  =  IC5H9+H2O  1.000E+12  0.00  1.230E+03
    REV /  5.000E+12  0.00  2.650E+04 /
!259
  AC5H10+H  =  IC5H9+H2  1.000E+12  0.00  3.800E+03
    REV /  1.000E+12  0.00  2.500E+04 /
!260
  BC5H10+H  =  IC5H9+H2  1.000E+12  0.00  3.800E+03
    REV /  1.000E+12  0.00  2.500E+04 /
!261
  AC5H10+CH3  =  IC5H9+CH4  5.000E+11  0.00  7.300E+03
    REV /  6.000E+11  0.00  2.500E+04 /
!262
  BC5H10+CH3  =  IC5H9+CH4  5.000E+11  0.00  7.300E+03
    REV /  6.000E+11  0.00  2.500E+04 /
!263
  AC5H10+O  =  IC5H9+OH  3.700E+05  2.56 -1.130E+03
    REV /  1.000E+12  0.00  2.500E+04 /
!264
  BC5H10+O  =  IC5H9+OH  3.700E+05  2.56 -1.130E+03
    REV /  1.000E+12  0.00  2.500E+04 /
!265
  C5H10-2+OH  =  NC3H7+CH3CHO  2.000E+10  0.00 -4.000E+03
    REV /  2.000E+13  0.00  2.000E+04 /
!266
  C5H10-2+O  =  C3H6+CH3CHO  1.000E+10  0.00  0.000E+00
    REV /  1.000E+12  0.00  8.100E+04 /
!267
  IC5H9  =  C3H4-A+C2H5  1.983E+20  -1.63  5.924E+04
    REV /  2.000E+11  0.00  8.300E+03 /
!268
  C5H11-1  =  C2H4+NC3H7  7.972E+17  -1.44  2.979E+04
    REV /  3.300E+11  0.00  7.200E+03 /
!269
  C5H11-1  =  H+C5H10-1  3.483E+15  -0.66  3.788E+04
    REV /  1.000E+13  0.00  2.900E+03 /
!270
  C5H11-1+O2  =  C5H10-1+HO2  3.000E-19  0.00  3.000E+03
    REV /  2.000E-19  0.00  1.750E+04 /
!271
  C5H11-1  =  C5H11-2  3.875E+09  0.35  1.976E+04
    REV /  1.830E+13  -0.63  2.436E+04 /
!272
  C5H11-2  =  C3H6+C2H5  3.026E+21  -2.26  3.096E+04
    REV /  3.300E+11  0.00  7.200E+03 /
!273
  C5H11-2  =  C5H10-1+H  1.645E+19  -1.64  4.078E+04
    REV /  1.000E+13  0.00  1.200E+03 /
!274
  C5H11-2  =  C5H10-2+H  4.729E+20  -2.24  3.963E+04
    REV /  1.000E+13  0.00  2.900E+03 /
!275
  C5H11-2+O2  =  C5H10-1+HO2  4.500E-19  0.00  5.020E+03
    REV /  2.000E-19  0.00  1.750E+04 /
!276
  C5H11-2+O2  =  C5H10-2+HO2  3.000E-19  0.00  3.000E+03
    REV /  2.000E-19  0.00  1.750E+04 /
!277
  C5H10-2  =  CH3+C4H7  1.000E+16  0.00  7.100E+04
    REV /  1.000E+13  0.00  0.000E+00 /
!278