"""
****************************************************************************
 68-SPECIES SKELETAL MECHANISM FOR N-HEPTANE

 TIANFENG LU, CHUNG K. LAW, CHUN SANG YOO, JACQUELINE H. CHEN,
 "DYNAMIC STIFFNESS REMOVAL FOR DIRECT NUMERICAL SIMULATIONS"
  COMBUSTION AND FLAME 156 (2009) .

 CONTACT:
   PROF. TIANFENG LU
   DEPARTMENT OF MECHANICAL ENGINEERING
   UNIVERSITY OF CONNECTICUT
   STORRS, CT 06269-3139
   EMAIL: TLU@ENGR.UCONN.EDU
****************************************************************************
"""

units(length='cm', time='s', quantity='mol', act_energy='cal/mol')

ideal_gas(name='gas',
          elements="H C O N",
          species="""H           H2          O           O2
                     OH          H2O         CO          HCO
                     CO2         CH3         CH4         HO2
                     H2O2        CH2O        CH3O        C2H6
                     C2H4        C2H5        C2H         C2H2
                     C2H3        CH3OH       CH2OH       CH2CO
                     HCCO        CH3CO       CH2CHO      CH3CHO
                     C3H4-A      C3H4-P      C3H6        C4H6
                     NC3H7       C4H7        C4H8-1      PC4H9
                     CH3COCH2    C2H5CHO     C5H9        C5H10-1
                     C5H11-1     C2H5O       CH3O2       CH3O2H
                     C2H3O1-2    C2H3CO      C2H3CHO     C3H5O
                     C4H7O       C3H5-A      C3H3        C3H2
                     CH2-S       NC3H7CHO    NC3H7CO     C2H5COCH2
                     CH3CHCO     NC3H7COCH3  NC3H7COCH2  NC7H16
                     C7H15-1     C7H15       C7H15O2     C7H14OOH
                     C7H14OOHO2  C7H14O      NC7KET      N2""",
          reactions='all',
          transport='Mix',
          initial_state=state(temperature=300.0, pressure=OneAtm))

#-------------------------------------------------------------------------------
# Species data
#-------------------------------------------------------------------------------

species(name='H',
        atoms='H:1',
        thermo=(NASA([300.00, 1000.00],
                     [ 2.50104422E+00,  0.00000000E+00,  0.00000000E+00,
                       0.00000000E+00,  0.00000000E+00,  2.54747466E+04,
                      -4.65341317E-01]),
                NASA([1000.00, 5000.00],
                     [ 2.50104422E+00,  0.00000000E+00,  0.00000000E+00,
                       0.00000000E+00,  0.00000000E+00,  2.54747466E+04,
                      -4.65341317E-01])),
        transport=gas_transport(geom='atom',
                                diam=2.05,
                                well_depth=145.0),
        note='8/12/99THERM')

species(name='H2',
        atoms='H:2',
        thermo=(NASA([300.00, 1000.00],
                     [ 3.29812400E+00,  8.24944200E-04, -8.14301500E-07,
                      -9.47543400E-11,  4.13487200E-13, -1.01252100E+03,
                      -3.29409400E+00]),
                NASA([1000.00, 5000.00],
                     [ 2.99142300E+00,  7.00064400E-04, -5.63382900E-08,
                      -9.23157800E-12,  1.58275200E-15, -8.35034000E+02,
                      -1.35511000E+00])),
        transport=gas_transport(geom='linear',
                                diam=2.92,
                                well_depth=38.0,
                                polar=0.79,
                                rot_relax=280.0),
        note='121286')

species(name='O',
        atoms='O:1',
        thermo=(NASA([300.00, 1000.00],
                     [ 2.94642900E+00, -1.63816600E-03,  2.42103200E-06,
                      -1.60284300E-09,  3.89069600E-13,  2.91476400E+04,
                       2.96399500E+00]),
                NASA([1000.00, 5000.00],
                     [ 2.54206000E+00, -2.75506200E-05, -3.10280300E-09,
                       4.55106700E-12, -4.36805200E-16,  2.92308000E+04,
                       4.92030800E+00])),
        transport=gas_transport(geom='atom',
                                diam=2.75,
                                well_depth=80.0),
        note='120186')

species(name='O2',
        atoms='O:2',
        thermo=(NASA([300.00, 1000.00],
                     [ 3.21293600E+00,  1.12748600E-03, -5.75615000E-07,
                       1.31387700E-09, -8.76855400E-13, -1.00524900E+03,
                       6.03473800E+00]),
                NASA([1000.00, 5000.00],
                     [ 3.69757800E+00,  6.13519700E-04, -1.25884200E-07,
                       1.77528100E-11, -1.13643500E-15, -1.23393000E+03,
                       3.18916600E+00])),
        transport=gas_transport(geom='linear',
                                diam=3.458,
                                well_depth=107.4,
                                polar=1.6,
                                rot_relax=3.8),
        note='121386')

species(name='OH',
        atoms='H:1 O:1',
        thermo=(NASA([300.00, 1357.00],
                     [ 3.43586219E+00,  2.02235804E-04, -1.13546412E-07,
                       2.42445149E-10, -7.43651031E-14,  3.74321252E+03,
                       2.45014127E+00]),
                NASA([1357.00, 5000.00],
                     [ 2.62599754E+00,  1.31992406E-03, -3.59724670E-07,
                       4.25630800E-11, -1.82048016E-15,  4.12085374E+03,
                       7.10667307E+00])),
        transport=gas_transport(geom='linear',
                                diam=2.75,
                                well_depth=80.0),
        note='8/12/99THERM')

species(name='H2O',
        atoms='H:2 O:1',
        thermo=(NASA([300.00, 1000.00],
                     [ 3.38684200E+00,  3.47498200E-03, -6.35469600E-06,
                       6.96858100E-09, -2.50658800E-12, -3.02081100E+04,
                       2.59023300E+00]),
                NASA([1000.00, 5000.00],
                     [ 2.67214600E+00,  3.05629300E-03, -8.73026000E-07,
                       1.20099600E-10, -6.39161800E-15, -2.98992100E+04,
                       6.86281700E+00])),
        transport=gas_transport(geom='nonlinear',
                                diam=2.605,
                                well_depth=572.4,
                                dipole=1.844,
                                rot_relax=4.0),
        note='20387')

species(name='CO',
        atoms='C:1 O:1',
        thermo=(NASA([300.00, 1000.00],
                     [ 3.26245200E+00,  1.51194100E-03, -3.88175500E-06,
                       5.58194400E-09, -2.47495100E-12, -1.43105400E+04,
                       4.84889700E+00]),
                NASA([1000.00, 5000.00],
                     [ 3.02507800E+00,  1.44268900E-03, -5.63082800E-07,
                       1.01858100E-10, -6.91095200E-15, -1.42683500E+04,
                       6.10821800E+00])),
        transport=gas_transport(geom='linear',
                                diam=3.65,
                                well_depth=98.1,
                                polar=1.95,
                                rot_relax=1.8),
        note='121286')

species(name='HCO',
        atoms='C:1 H:1 O:1',
        thermo=(NASA([300.00, 1000.00],
                     [ 2.89833000E+00,  6.19914700E-03, -9.62308400E-06,
                       1.08982500E-08, -4.57488500E-12,  4.15992200E+03,
                       8.98361400E+00]),
                NASA([1000.00, 5000.00],
                     [ 3.55727100E+00,  3.34557300E-03, -1.33500600E-06,
                       2.47057300E-10, -1.71385100E-14,  3.91632400E+03,
                       5.55229900E+00])),
        transport=gas_transport(geom='nonlinear',
                                diam=3.59,
                                well_depth=498.0),
        note='121286')

species(name='CO2',
        atoms='C:1 O:2',
        thermo=(NASA([300.00, 1000.00],
                     [ 2.27572500E+00,  9.92207200E-03, -1.04091100E-05,
                       6.86668700E-09, -2.11728000E-12, -4.83731400E+04,
                       1.01884900E+01]),
                NASA([1000.00, 5000.00],
                     [ 4.45362300E+00,  3.14016900E-03, -1.27841100E-06,
                       2.39399700E-10, -1.66903300E-14, -4.89669600E+04,
                      -9.55395900E-01])),
        transport=gas_transport(geom='linear',
                                diam=3.763,
                                well_depth=244.0,
                                polar=2.65,
                                rot_relax=2.1),
        note='121286')

species(name='CH3',
        atoms='C:1 H:3',
        thermo=(NASA([300.00, 1000.00],
                     [ 2.43044300E+00,  1.11241000E-02, -1.68022000E-05,
                       1.62182900E-08, -5.86495300E-12,  1.64237800E+04,
                       6.78979400E+00]),
                NASA([1000.00, 5000.00],
                     [ 2.84405200E+00,  6.13797400E-03, -2.23034500E-06,
                       3.78516100E-10, -2.45215900E-14,  1.64378100E+04,
                       5.45269700E+00])),
        transport=gas_transport(geom='linear',
                                diam=3.8,
                                well_depth=144.0),
        note='121286')

species(name='CH4',
        atoms='C:1 H:4',
        thermo=(NASA([300.00, 1000.00],
                     [ 7.78741500E-01,  1.74766800E-02, -2.78340900E-05,
                       3.04970800E-08, -1.22393100E-11, -9.82522900E+03,
                       1.37221900E+01]),
                NASA([1000.00, 5000.00],
                     [ 1.68347900E+00,  1.02372400E-02, -3.87512900E-06,
                       6.78558500E-10, -4.50342300E-14, -1.00807900E+04,
                       9.62339500E+00])),
        transport=gas_transport(geom='nonlinear',
                                diam=3.746,
                                well_depth=141.4,
                                polar=2.6,
                                rot_relax=13.0),
        note='121286')

species(name='HO2',
        atoms='H:1 O:2',
        thermo=(NASA([300.00, 1390.00],
                     [ 3.18310656E+00,  3.66767950E-03, -9.32385122E-07,
                      -3.25852919E-10,  1.51139912E-13,  8.09181013E+02,
                       8.39371099E+00]),
                NASA([1390.00, 5000.00],
                     [ 4.10547423E+00,  2.38452835E-03, -8.06347989E-07,
                       1.24191723E-10, -7.16400108E-15,  3.98127689E+02,
                       3.12515836E+00])),
        transport=gas_transport(geom='nonlinear',
                                diam=3.458,
                                well_depth=107.4,
                                rot_relax=1.0),
        note='8/12/99THERM')

species(name='H2O2',
        atoms='H:2 O:2',
        thermo=(NASA([300.00, 1000.00],
                     [ 3.38875400E+00,  6.56922600E-03, -1.48501300E-07,
                      -4.62580600E-09,  2.47151500E-12, -1.76631500E+04,
                       6.78536300E+00]),
                NASA([1000.00, 5000.00],
                     [ 4.57316700E+00,  4.33613600E-03, -1.47468900E-06,
                       2.34890400E-10, -1.43165400E-14, -1.80069600E+04,
                       5.01137000E-01])),
        transport=gas_transport(geom='nonlinear',
                                diam=3.458,
                                well_depth=107.4,
                                rot_relax=3.8),
        note='120186')

species(name='CH2O',
        atoms='C:1 H:2 O:1',
        thermo=(NASA([300.00, 1000.00],
                     [ 1.65273100E+00,  1.26314400E-02, -1.88816800E-05,
                       2.05003100E-08, -8.41323700E-12, -1.48654000E+04,
                       1.37848200E+01]),
                NASA([1000.00, 5000.00],
                     [ 2.99560600E+00,  6.68132100E-03, -2.62895500E-06,
                       4.73715300E-10, -3.21251700E-14, -1.53203700E+04,
                       6.91257200E+00])),
        transport=gas_transport(geom='nonlinear',
                                diam=3.59,
                                well_depth=498.0,
                                rot_relax=2.0),
        note='121286')

species(name='CH3O',
        atoms='C:1 H:3 O:1',
        thermo=(NASA([300.00, 1000.00],
                     [ 2.10620400E+00,  7.21659500E-03,  5.33847200E-06,
                      -7.37763600E-09,  2.07561100E-12,  9.78601100E+02,
                       1.31521800E+01]),
                NASA([1000.00, 3000.00],
                     [ 3.77080000E+00,  7.87149700E-03, -2.65638400E-06,
                       3.94443100E-10, -2.11261600E-14,  1.27832500E+02,
                       2.92957500E+00])),
        transport=gas_transport(geom='nonlinear',
                                diam=3.69,
                                well_depth=417.0,
                                dipole=1.7,
                                rot_relax=2.0),
        note='121686')

species(name='C2H6',
        atoms='C:2 H:6',
        thermo=(NASA([300.00, 1384.00],
                     [-2.52854344E-02,  2.40764754E-02, -1.11893472E-05,
                       2.08340901E-09, -5.29868616E-14, -1.12345534E+04,
                       2.11648750E+01]),
                NASA([1384.00, 5000.00],
                     [ 6.10683385E+00,  1.29236361E-02, -4.42527196E-06,
                       6.87391726E-10, -3.98901732E-14, -1.37500014E+04,
                      -1.30081250E+01])),
        transport=gas_transport(geom='nonlinear',
                                diam=4.35,
                                well_depth=247.5,
                                rot_relax=1.5),
        note='1/14/95THERM')

species(name='C2H4',
        atoms='C:2 H:4',
        thermo=(NASA([300.00, 1000.00],
                     [-8.61488000E-01,  2.79616300E-02, -3.38867700E-05,
                       2.78515200E-08, -9.73787900E-12,  5.57304600E+03,
                       2.42114900E+01]),
                NASA([1000.00, 5000.00],
                     [ 3.52841900E+00,  1.14851800E-02, -4.41838500E-06,
                       7.84460100E-10, -5.26684800E-14,  4.42828900E+03,
                       2.23038900E+00])),
        transport=gas_transport(geom='nonlinear',
                                diam=3.496,
                                well_depth=238.4,
                                rot_relax=1.5),
        note='121286')

species(name='C2H5',
        atoms='C:2 H:5',
        thermo=(NASA([300.00, 1000.00],
                     [ 2.69070200E+00,  8.71913300E-03,  4.41983900E-06,
                       9.33870300E-10, -3.92777300E-12,  1.28704000E+04,
                       1.21382000E+01]),
                NASA([1000.00, 5000.00],
                     [ 7.19048000E+00,  6.48407700E-03, -6.42806500E-07,
                      -2.34787900E-10,  3.88087700E-14,  1.06745500E+04,
                      -1.47808900E+01])),
        transport=gas_transport(geom='nonlinear',
                                diam=4.35,
                                well_depth=247.5,
                                rot_relax=1.5),
        note='12387')

species(name='C2H',
        atoms='C:2 H:1',
        thermo=(NASA([300.00, 1000.00],
                     [ 2.73770400E+00,  8.04844600E-03, -9.24431000E-06,
                       6.52525900E-09, -1.93958000E-12,  6.68381300E+04,
                       7.30022000E+00]),
                NASA([1000.00, 4000.00],
                     [ 3.98636700E+00,  3.14312300E-03, -1.26724300E-06,
                       2.92436300E-10, -2.71632000E-14,  6.65588400E+04,
                       1.19106300E+00])),
        transport=gas_transport(geom='linear',
                                diam=3.721,
                                well_depth=265.3,
                                rot_relax=2.5),
        note='81193')

species(name='C2H2',
        atoms='C:2 H:2',
        thermo=(NASA([300.00, 1000.00],
                     [ 2.01356200E+00,  1.51904500E-02, -1.61631900E-05,
                       9.07899200E-09, -1.91274600E-12,  2.61244400E+04,
                       8.80537800E+00]),
                NASA([1000.00, 5000.00],
                     [ 4.43677000E+00,  5.37603900E-03, -1.91281700E-06,
                       3.28637900E-10, -2.15671000E-14,  2.56676600E+04,
                      -2.80033800E+00])),
        transport=gas_transport(geom='linear',
                                diam=3.721,
                                well_depth=265.3,
                                rot_relax=2.5),
        note='121386')

species(name='C2H3',
        atoms='C:2 H:3',
        thermo=(NASA([300.00, 1000.00],
                     [ 2.45927600E+00,  7.37147600E-03,  2.10987300E-06,
                      -1.32164200E-09, -1.18478400E-12,  3.33522500E+04,
                       1.15562000E+01]),
                NASA([1000.00, 5000.00],
                     [ 5.93346800E+00,  4.01774600E-03, -3.96674000E-07,
                      -1.44126700E-10,  2.37864400E-14,  3.18543500E+04,
                      -8.53031300E+00])),
        transport=gas_transport(geom='nonlinear',
                                diam=3.721,
                                well_depth=265.3,
                                rot_relax=1.0),
        note='12787')

species(name='CH3OH',
        atoms='C:1 H:4 O:1',
        thermo=(NASA([300.00, 1000.00],
                     [ 2.66011500E+00,  7.34150800E-03,  7.17005100E-06,
                      -8.79319400E-09,  2.39057000E-12, -2.53534800E+04,
                       1.12326300E+01]),
                NASA([1000.00, 5000.00],
                     [ 4.02906100E+00,  9.37659300E-03, -3.05025400E-06,
                       4.35879300E-10, -2.22472300E-14, -2.61579100E+04,
                       2.37819600E+00])),
        transport=gas_transport(geom='nonlinear',
                                diam=3.626,
                                well_depth=481.8,
                                rot_relax=1.0),
        note='121686')

species(name='CH2OH',
        atoms='C:1 H:3 O:1',
        thermo=(NASA([250.00, 1000.00],
                     [ 2.86262800E+00,  1.00152700E-02, -5.28543600E-07,
                      -5.13854000E-09,  2.24604100E-12, -3.34967900E+03,
                       1.03979400E+01]),
                NASA([1000.00, 4000.00],
                     [ 6.32752000E+00,  3.60827100E-03, -3.20154700E-07,
                      -1.93875000E-10,  3.50970500E-14, -4.47450900E+03,
                      -8.32936600E+00])),
        transport=gas_transport(geom='nonlinear',
                                diam=3.69,
                                well_depth=417.0,
                                dipole=1.7,
                                rot_relax=2.0),
        note='120186')

species(name='CH2CO',
        atoms='C:2 H:2 O:1',
        thermo=(NASA([300.00, 1000.00],
                     [ 2.97497100E+00,  1.21187100E-02, -2.34504600E-06,
                      -6.46668500E-09,  3.90564900E-12, -7.63263700E+03,
                       8.67355300E+00]),
                NASA([1000.00, 5000.00],
                     [ 6.03881700E+00,  5.80484000E-03, -1.92095400E-06,
                       2.79448500E-10, -1.45886800E-14, -8.58340200E+03,
                      -7.65758100E+00])),
        transport=gas_transport(geom='nonlinear',
                                diam=3.97,
                                well_depth=436.0,
                                rot_relax=2.0),
        note='121686')

species(name='HCCO',
        atoms='C:2 H:1 O:1',
        thermo=(NASA([300.00, 1000.00],
                     [ 5.04796500E+00,  4.45347800E-03,  2.26828300E-07,
                      -1.48209500E-09,  2.25074200E-13,  1.96589200E+04,
                       4.81843900E-01]),
                NASA([1000.00, 4000.00],
                     [ 6.75807300E+00,  2.00040000E-03, -2.02760700E-07,
                      -1.04113200E-10,  1.96516500E-14,  1.90151300E+04,
                      -9.07126200E+00])),
        transport=gas_transport(geom='nonlinear',
                                diam=2.5,
                                well_depth=150.0,
                                rot_relax=1.0),
        note='32387')

species(name='CH3CO',
        atoms='C:2 H:3 O:1',
        thermo=(NASA([300.00, 1000.00],
                     [ 3.12527800E+00,  9.77822000E-03,  4.52144800E-06,
                      -9.00946200E-09,  3.19371800E-12, -4.10850800E+03,
                       1.12288500E+01]),
                NASA([1000.00, 5000.00],
                     [ 5.61227900E+00,  8.44988600E-03, -2.85414700E-06,
                       4.23837600E-10, -2.26840400E-14, -5.18786300E+03,
                      -3.27494900E+00])),
        transport=gas_transport(geom='nonlinear',
                                diam=3.97,
                                well_depth=436.0,
                                rot_relax=2.0),
        note='120186')

species(name='CH2CHO',
        atoms='C:2 H:3 O:1',
        thermo=(NASA([300.00, 1000.00],
                     [ 3.40906200E+00,  1.07385700E-02,  1.89149200E-06,
                      -7.15858300E-09,  2.86738500E-12,  1.52147700E+03,
                       9.55829000E+00]),
                NASA([1000.00, 5000.00],
                     [ 5.97567000E+00,  8.13059100E-03, -2.74362400E-06,
                       4.07030400E-10, -2.17601700E-14,  4.90321800E+02,
                      -5.04525100E+00])),
        transport=gas_transport(geom='nonlinear',
                                diam=3.97,
                                well_depth=436.0,
                                rot_relax=2.0),
        note='110393')

species(name='CH3CHO',
        atoms='C:2 H:4 O:1',
        thermo=(NASA([300.00, 1000.00],
                     [ 2.50569500E+00,  1.33699100E-02,  4.67195300E-06,
                      -1.12814000E-08,  4.26356600E-12, -2.12458900E+04,
                       1.33508900E+01]),
                NASA([1000.00, 5000.00],
                     [ 5.86865000E+00,  1.07942400E-02, -3.64553000E-06,
                       5.41291200E-10, -2.89684400E-14, -2.26456900E+04,
                      -6.01294600E+00])),
        transport=gas_transport(geom='nonlinear',
                                diam=3.97,
                                well_depth=436.0,
                                rot_relax=2.0),
        note='120186')

species(name='C3H4-A',
        atoms='C:3 H:4',
        thermo=(NASA([300.00, 1400.00],
                     [ 2.53983100E+00,  1.63343700E-02, -1.76495000E-06,
                      -4.64736500E-09,  1.72913100E-12,  2.25124300E+04,
                       9.93570200E+00]),
                NASA([1400.00, 4000.00],
                     [ 9.77625600E+00,  5.30213800E-03, -3.70111800E-07,
                      -3.02638600E-10,  5.08958100E-14,  1.95497200E+04,
                      -3.07706100E+01])),
        transport=gas_transport(geom='linear',
                                diam=4.29,
                                well_depth=324.8,
                                rot_relax=1.0),
        note='101993')

species(name='C3H4-P',
        atoms='C:3 H:4',
        thermo=(NASA([300.00, 1400.00],
                     [ 3.02973000E+00,  1.49896100E-02, -1.39850000E-06,
                      -3.96961900E-09,  1.38821700E-12,  2.14840800E+04,
                       8.00459400E+00]),
                NASA([1400.00, 4000.00],
                     [ 9.76810200E+00,  5.21915100E-03, -3.75314000E-07,
                      -2.99219100E-10,  5.10787800E-14,  1.86027700E+04,
                      -3.02067800E+01])),
        transport=gas_transport(geom='linear',
                                diam=4.29,
                                well_depth=324.8,
                                rot_relax=1.0),
        note='101993')

species(name='C3H6',
        atoms='C:3 H:6',
        thermo=(NASA([300.00, 1388.00],
                     [ 3.94615444E-01,  2.89107662E-02, -1.54886808E-05,
                       3.88814209E-09, -3.37890352E-13,  1.06688164E+03,
                       2.19003736E+01]),
                NASA([1388.00, 5000.00],
                     [ 8.01595958E+00,  1.37023634E-02, -4.66249733E-06,
                       7.21254402E-10, -4.17370126E-14, -1.87821271E+03,
                      -2.00160668E+01])),
        transport=gas_transport(geom='nonlinear',
                                diam=4.14,
                                well_depth=307.8,
                                rot_relax=1.0),
        note='5/27/97THERM')

species(name='C4H6',
        atoms='C:4 H:6',
        thermo=(NASA([300.00, 1398.00],
                     [-1.43095121E+00,  4.78706062E-02, -4.15446800E-05,
                       1.91549552E-08, -3.57158507E-12,  1.17551314E+04,
                       2.90825833E+01]),
                NASA([1398.00, 5000.00],
                     [ 1.11633789E+01,  1.37163965E-02, -4.69715783E-06,
                       7.29693836E-10, -4.23486203E-14,  7.79039770E+03,
                      -3.69847949E+01])),
        transport=gas_transport(geom='nonlinear',
                                diam=4.72,
                                well_depth=357.0,
                                rot_relax=1.0),
        note='4/4/0THERM')

species(name='NC3H7',
        atoms='C:3 H:7',
        thermo=(NASA([300.00, 1000.00],
                     [ 1.92253700E+00,  2.47892700E-02,  1.81024900E-06,
                      -1.78326600E-08,  8.58299600E-12,  9.71328100E+03,
                       1.39927100E+01]),
                NASA([1000.00, 5000.00],
                     [ 7.97829100E+00,  1.57611300E-02, -5.17324300E-06,
                       7.44389200E-10, -3.82497800E-14,  7.57940200E+03,
                      -1.93561100E+01])),
        transport=gas_transport(geom='nonlinear',
                                diam=4.81,
                                well_depth=303.4,
                                rot_relax=1.0),
        note='120186')

species(name='C4H7',
        atoms='C:4 H:7',
        thermo=(NASA([300.00, 1392.00],
                     [-3.50508352E-01,  4.26511243E-02, -2.90979373E-05,
                       1.05403914E-08, -1.60059854E-12,  1.49933591E+04,
                       2.67295696E+01]),
                NASA([1392.00, 5000.00],
                     [ 1.12103578E+01,  1.60483196E-02, -5.46502292E-06,
                       8.45941053E-10, -4.89772739E-14,  1.09041937E+04,
                      -3.55593015E+01])),
        transport=gas_transport(geom='nonlinear',
                                diam=4.65,
                                well_depth=355.0,
                                rot_relax=1.0),
        note='2/14/95THERM')

species(name='C4H8-1',
        atoms='C:4 H:8',
        thermo=(NASA([300.00, 1392.00],
                     [-8.31372089E-01,  4.52580978E-02, -2.93658559E-05,
                       1.00220436E-08, -1.43191680E-12, -1.57875035E+03,
                       2.95084236E+01]),
                NASA([1392.00, 5000.00],
                     [ 1.13508668E+01,  1.80617877E-02, -6.16093029E-06,
                       9.54652959E-10, -5.53089641E-14, -5.97871038E+03,
                      -3.64369438E+01])),
        transport=gas_transport(geom='nonlinear',
                                diam=4.65,
                                well_depth=355.0,
                                rot_relax=1.0),
        note='4/7/97THERM')

species(name='PC4H9',
        atoms='C:4 H:9',
        thermo=(NASA([300.00, 1395.00],
                     [-4.37779725E-01,  4.78972364E-02, -3.14023159E-05,
                       1.09786472E-08, -1.62010664E-12,  7.68945248E+03,
                       2.86852732E+01]),
                NASA([1395.00, 5000.00],
                     [ 1.21510082E+01,  1.94310717E-02, -6.61577950E-06,
                       1.02375136E-09, -5.92529707E-14,  3.17231942E+03,
                      -3.93425822E+01])),
        transport=gas_transport(geom='nonlinear',
                                diam=5.24,
                                well_depth=352.0,
                                rot_relax=1.0),
        note='1/14/95THERM')

species(name='CH3COCH2',
        atoms='C:3 H:5 O:1',
        thermo=(NASA([300.00, 1391.00],
                     [ 1.80339187E+00,  3.01407085E-02, -1.93505552E-05,
                       6.38199034E-09, -8.66103180E-13, -5.37233261E+03,
                       1.78046408E+01]),
                NASA([1391.00, 5000.00],
                     [ 1.02303975E+01,  1.16494161E-02, -4.01005537E-06,
                       6.25205246E-10, -3.63784362E-14, -8.44380462E+03,
                      -2.79197220E+01])),
        transport=gas_transport(geom='nonlinear',
                                diam=4.86,
                                well_depth=435.5,
                                rot_relax=1.0),
        note='5/4/92THERM')

species(name='C2H5CHO',
        atoms='C:3 H:6 O:1',
        thermo=(NASA([300.00, 1378.00],
                     [ 2.16308444E+00,  2.95501264E-02, -1.52446252E-05,
                       3.49503947E-09, -2.38896627E-13, -2.42260137E+04,
                       1.61153348E+01]),
                NASA([1378.00, 5000.00],
                     [ 1.02427695E+01,  1.39641989E-02, -4.76248001E-06,
                       7.38105706E-10, -4.27759503E-14, -2.74143135E+04,
                      -2.85346843E+01])),
        transport=gas_transport(geom='nonlinear',
                                diam=4.662,
                                well_depth=435.2,
                                dipole=2.7,
                                rot_relax=1.0),
        note='6/26/95THERM')

species(name='C5H9',
        atoms='C:5 H:9',
        thermo=(NASA([300.00, 1392.00],
                     [-1.38013950E+00,  5.57608487E-02, -3.70143928E-05,
                       1.26883901E-08, -1.78538835E-12,  1.25589824E+04,
                       3.26441304E+01]),
                NASA([1392.00, 5000.00],
                     [ 1.41860454E+01,  2.07128899E-02, -7.06960617E-06,
                       1.09607133E-09, -6.35322208E-14,  7.00496135E+03,
                      -5.14501773E+01])),