"""
DEVELOPMENT OF A REDUCED N-DODECANE-PAH MECHANISM AND ITS APPLICATION FOR N-DODECANE SOOT PREDICTIONS
HU WANG, YOUNGCHUL RA, MING JIA AND ROLF. D. REITZ
SUBMITTED TO FUEL
100 SPECIES AND 432 REACTIONS
"""

units(length='cm', time='s', quantity='mol', act_energy='cal/mol')

ideal_gas(name='gas',
          elements="H C O N",
          species="""C12H26      O2          N2          CO2
                     H2O         CO          H2          OH
                     H2O2        HO2         H           O
                     CH3O        CH2O        HCO         CH2
                     CH3         CH4         C2H2        C2H3
                     C12H25      C12H25O2    C12KET      C10H21
                     C10H21O2    C10KET2-1   C7H15-2     C7H15O2
                     NC7KET23    C7H15O2H    C7H14OOH    O2C7H14OOH
                     C7H15CHO    C7H15CO     C6H13CHO    C6H13CO
                     C6H13       C6H13O2     C6H13O      C6H12
                     C6H12OOH    C6H12OOHO2  C6KET24     C6H12O
                     C6H112-4    C6H11O2-4   C5H11       C5H10
                     C5H9        C4H9CO      C4H9        C4H9O2
                     C4H8OOH     C4H8OOHO2   C4KET23     C4H8
                     C4H7        C4H7O       C3H7CHO     C3H7
                     C3H6        C3H5        C3H7O2      C3H6OOH
                     C3H7O       C3H6CHO     C2H5CHO     C2H5CO
                     C2H3CHO     C2H4        C2H5        CH3O2
                     CH2CO       CH2CHO      CH3CO       CH3CHO
                     CH3OH       CH2OH       CH3OCO      HCCO
                     C2H         C3H2        C3H3        C4H2
                     C4H3        C4H4        C4H5        C5H5
                     C6H5O       A1-         A1C2H-      A1C2H
                     A1C2H3      A2-         A2R5        A3-
                     A1          A2          A3          A4""",
          reactions='all',
          transport='Mix',
          initial_state=state(temperature=300.0, pressure=OneAtm))

#-------------------------------------------------------------------------------
# Species data
#-------------------------------------------------------------------------------

species(name='C12H26',
        atoms='C:12 H:26',
        thermo=(NASA([300.00, 1391.00],
                     [-2.62181594E+00,  1.47237711E-01, -9.43970271E-05,
                       3.07441268E-08, -4.03602230E-12, -4.00654253E+04,
                       5.00994626E+01]),
                NASA([1391.00, 5000.00],
                     [ 3.85095037E+01,  5.63550048E-02, -1.91493200E-05,
                       2.96024862E-09, -1.71244150E-13, -5.48843465E+04,
                      -1.72670922E+02])),
        transport=gas_transport(geom='nonlinear',
                                diam=7.06,
                                well_depth=789.16,
                                polar=22.75,
                                rot_relax=1.0),
        note='-THERM')

species(name='O2',
        atoms='O:2',
        thermo=(NASA([300.00, 1000.00],
                     [ 3.21293600E+00,  1.12748600E-03, -5.75615000E-07,
                       1.31387700E-09, -8.76855400E-13, -1.00524900E+03,
                       6.03473800E+00]),
                NASA([1000.00, 5000.00],
                     [ 3.69757800E+00,  6.13519700E-04, -1.25884200E-07,
                       1.77528100E-11, -1.13643500E-15, -1.23393000E+03,
                       3.18916600E+00])),
        transport=gas_transport(geom='linear',
                                diam=3.458,
                                well_depth=107.4,
                                polar=1.6,
                                rot_relax=3.8),
        note='121386')

species(name='N2',
        atoms='N:2',
        thermo=(NASA([300.00, 1000.00],
                     [ 3.29867700E+00,  1.40824000E-03, -3.96322200E-06,
                       5.64151500E-09, -2.44485500E-12, -1.02090000E+03,
                       3.95037200E+00]),
                NASA([1000.00, 5000.00],
                     [ 2.92664000E+00,  1.48797700E-03, -5.68476100E-07,
                       1.00970400E-10, -6.75335100E-15, -9.22797700E+02,
                       5.98052800E+00])),
        transport=gas_transport(geom='linear',
                                diam=3.621,
                                well_depth=97.53,
                                polar=1.76,
                                rot_relax=4.0),
        note='121286')

species(name='CO2',
        atoms='C:1 O:2',
        thermo=(NASA([300.00, 1000.00],
                     [ 2.27572500E+00,  9.92207200E-03, -1.04091100E-05,
                       6.86668700E-09, -2.11728000E-12, -4.83731400E+04,
                       1.01884900E+01]),
                NASA([1000.00, 5000.00],
                     [ 4.45362300E+00,  3.14016900E-03, -1.27841100E-06,
                       2.39399700E-10, -1.66903300E-14, -4.89669600E+04,
                      -9.55395900E-01])),
        transport=gas_transport(geom='linear',
                                diam=3.763,
                                well_depth=244.0,
                                polar=2.65,
                                rot_relax=2.1),
        note='121286')

species(name='H2O',
        atoms='H:2 O:1',
        thermo=(NASA([300.00, 1000.00],
                     [ 3.38684200E+00,  3.47498200E-03, -6.35469600E-06,
                       6.96858100E-09, -2.50658800E-12, -3.02081100E+04,
                       2.59023300E+00]),
                NASA([1000.00, 5000.00],
                     [ 2.67214600E+00,  3.05629300E-03, -8.73026000E-07,
                       1.20099600E-10, -6.39161800E-15, -2.98992100E+04,
                       6.86281700E+00])),
        transport=gas_transport(geom='nonlinear',
                                diam=2.605,
                                well_depth=572.4,
                                dipole=1.844,
                                rot_relax=4.0),
        note='-20387')

species(name='CO',
        atoms='C:1 O:1',
        thermo=(NASA([300.00, 1000.00],
                     [ 3.26245200E+00,  1.51194100E-03, -3.88175500E-06,
                       5.58194400E-09, -2.47495100E-12, -1.43105400E+04,
                       4.84889700E+00]),
                NASA([1000.00, 5000.00],
                     [ 3.02507800E+00,  1.44268900E-03, -5.63082800E-07,
                       1.01858100E-10, -6.91095200E-15, -1.42683500E+04,
                       6.10821800E+00])),
        transport=gas_transport(geom='linear',
                                diam=3.65,
                                well_depth=98.1,
                                polar=1.95,
                                rot_relax=1.8),
        note='121286')

species(name='H2',
        atoms='H:2',
        thermo=(NASA([300.00, 1000.00],
                     [ 3.29812400E+00,  8.24944200E-04, -8.14301500E-07,
                      -9.47543400E-11,  4.13487200E-13, -1.01252100E+03,
                      -3.29409400E+00]),
                NASA([1000.00, 5000.00],
                     [ 2.99142300E+00,  7.00064400E-04, -5.63382900E-08,
                      -9.23157800E-12,  1.58275200E-15, -8.35034000E+02,
                      -1.35511000E+00])),
        transport=gas_transport(geom='linear',
                                diam=2.92,
                                well_depth=38.0,
                                polar=0.79,
                                rot_relax=280.0),
        note='121286')

species(name='OH',
        atoms='H:1 O:1',
        thermo=(NASA([300.00, 1357.00],
                     [ 3.43586219E+00,  2.02235804E-04, -1.13546412E-07,
                       2.42445149E-10, -7.43651031E-14,  3.74321252E+03,
                       2.45014127E+00]),
                NASA([1357.00, 5000.00],
                     [ 2.62599754E+00,  1.31992406E-03, -3.59724670E-07,
                       4.25630800E-11, -1.82048016E-15,  4.12085374E+03,
                       7.10667307E+00])),
        transport=gas_transport(geom='linear',
                                diam=2.75,
                                well_depth=80.0),
        note='-THERM')

species(name='H2O2',
        atoms='H:2 O:2',
        thermo=(NASA([300.00, 1000.00],
                     [ 3.38875400E+00,  6.56922600E-03, -1.48501300E-07,
                      -4.62580600E-09,  2.47151500E-12, -1.76631500E+04,
                       6.78536300E+00]),
                NASA([1000.00, 5000.00],
                     [ 4.57316700E+00,  4.33613600E-03, -1.47468900E-06,
                       2.34890400E-10, -1.43165400E-14, -1.80069600E+04,
                       5.01137000E-01])),
        transport=gas_transport(geom='nonlinear',
                                diam=3.458,
                                well_depth=107.4,
                                rot_relax=3.8),
        note='120186')

species(name='HO2',
        atoms='H:1 O:2',
        thermo=(NASA([300.00, 1390.00],
                     [ 3.18310656E+00,  3.66767950E-03, -9.32385122E-07,
                      -3.25852919E-10,  1.51139912E-13,  8.09181013E+02,
                       8.39371099E+00]),
                NASA([1390.00, 5000.00],
                     [ 4.10547423E+00,  2.38452835E-03, -8.06347989E-07,
                       1.24191723E-10, -7.16400108E-15,  3.98127689E+02,
                       3.12515836E+00])),
        transport=gas_transport(geom='nonlinear',
                                diam=3.458,
                                well_depth=107.4,
                                rot_relax=1.0),
        note='-THERM')

species(name='H',
        atoms='H:1',
        thermo=(NASA([300.00, 1000.00],
                     [ 2.50000000E+00,  0.00000000E+00,  0.00000000E+00,
                       0.00000000E+00,  0.00000000E+00,  2.54716300E+04,
                      -4.60117600E-01]),
                NASA([1000.00, 5000.00],
                     [ 2.50000000E+00,  0.00000000E+00,  0.00000000E+00,
                       0.00000000E+00,  0.00000000E+00,  2.54716300E+04,
                      -4.60117600E-01])),
        transport=gas_transport(geom='atom',
                                diam=2.05,
                                well_depth=145.0),
        note='120186')

species(name='O',
        atoms='O:1',
        thermo=(NASA([300.00, 1000.00],
                     [ 2.94642900E+00, -1.63816600E-03,  2.42103200E-06,
                      -1.60284300E-09,  3.89069600E-13,  2.91476400E+04,
                       2.96399500E+00]),
                NASA([1000.00, 5000.00],
                     [ 2.54206000E+00, -2.75506200E-05, -3.10280300E-09,
                       4.55106700E-12, -4.36805200E-16,  2.92308000E+04,
                       4.92030800E+00])),
        transport=gas_transport(geom='atom',
                                diam=2.75,
                                well_depth=80.0),
        note='120186')

species(name='CH3O',
        atoms='C:1 H:3 O:1',
        thermo=(NASA([300.00, 1000.00],
                     [ 2.10620400E+00,  7.21659500E-03,  5.33847200E-06,
                      -7.37763600E-09,  2.07561100E-12,  9.78601100E+02,
                       1.31521800E+01]),
                NASA([1000.00, 3000.00],
                     [ 3.77080000E+00,  7.87149700E-03, -2.65638400E-06,
                       3.94443100E-10, -2.11261600E-14,  1.27832500E+02,
                       2.92957500E+00])),
        transport=gas_transport(geom='nonlinear',
                                diam=3.69,
                                well_depth=417.0,
                                dipole=1.7,
                                rot_relax=2.0),
        note='121686')

species(name='CH2O',
        atoms='C:1 H:2 O:1',
        thermo=(NASA([300.00, 1000.00],
                     [ 1.65273100E+00,  1.26314400E-02, -1.88816800E-05,
                       2.05003100E-08, -8.41323700E-12, -1.48654000E+04,
                       1.37848200E+01]),
                NASA([1000.00, 5000.00],
                     [ 2.99560600E+00,  6.68132100E-03, -2.62895500E-06,
                       4.73715300E-10, -3.21251700E-14, -1.53203700E+04,
                       6.91257200E+00])),
        transport=gas_transport(geom='nonlinear',
                                diam=3.59,
                                well_depth=498.0,
                                rot_relax=2.0),
        note='121286')

species(name='HCO',
        atoms='C:1 H:1 O:1',
        thermo=(NASA([300.00, 1000.00],
                     [ 2.89833000E+00,  6.19914700E-03, -9.62308400E-06,
                       1.08982500E-08, -4.57488500E-12,  4.15992200E+03,
                       8.98361400E+00]),
                NASA([1000.00, 5000.00],
                     [ 3.55727100E+00,  3.34557300E-03, -1.33500600E-06,
                       2.47057300E-10, -1.71385100E-14,  3.91632400E+03,
                       5.55229900E+00])),
        transport=gas_transport(geom='nonlinear',
                                diam=3.59,
                                well_depth=498.0),
        note='121286')

species(name='CH2',
        atoms='C:1 H:2',
        thermo=(NASA([250.00, 1000.00],
                     [ 3.76223700E+00,  1.15981900E-03,  2.48958500E-07,
                       8.80083600E-10, -7.33243500E-13,  4.53679100E+04,
                       1.71257800E+00]),
                NASA([1000.00, 4000.00],
                     [ 3.63640800E+00,  1.93305700E-03, -1.68701600E-07,
                      -1.00989900E-10,  1.80825600E-14,  4.53413400E+04,
                       2.15656100E+00])),
        transport=gas_transport(geom='linear',
                                diam=3.8,
                                well_depth=144.0),
        note='120186')

species(name='CH3',
        atoms='C:1 H:3',
        thermo=(NASA([300.00, 1000.00],
                     [ 2.43044300E+00,  1.11241000E-02, -1.68022000E-05,
                       1.62182900E-08, -5.86495300E-12,  1.64237800E+04,
                       6.78979400E+00]),
                NASA([1000.00, 5000.00],
                     [ 2.84405200E+00,  6.13797400E-03, -2.23034500E-06,
                       3.78516100E-10, -2.45215900E-14,  1.64378100E+04,
                       5.45269700E+00])),
        transport=gas_transport(geom='linear',
                                diam=3.8,
                                well_depth=144.0),
        note='121286')

species(name='CH4',
        atoms='C:1 H:4',
        thermo=(NASA([300.00, 1000.00],
                     [ 7.78741500E-01,  1.74766800E-02, -2.78340900E-05,
                       3.04970800E-08, -1.22393100E-11, -9.82522900E+03,
                       1.37221900E+01]),
                NASA([1000.00, 5000.00],
                     [ 1.68347900E+00,  1.02372400E-02, -3.87512900E-06,
                       6.78558500E-10, -4.50342300E-14, -1.00807900E+04,
                       9.62339500E+00])),
        transport=gas_transport(geom='nonlinear',
                                diam=3.746,
                                well_depth=141.4,
                                polar=2.6,
                                rot_relax=13.0),
        note='121286')

species(name='C2H2',
        atoms='C:2 H:2',
        thermo=(NASA([300.00, 1000.00],
                     [ 2.01356200E+00,  1.51904500E-02, -1.61631900E-05,
                       9.07899200E-09, -1.91274600E-12,  2.61244400E+04,
                       8.80537800E+00]),
                NASA([1000.00, 5000.00],
                     [ 4.43677000E+00,  5.37603900E-03, -1.91281700E-06,
                       3.28637900E-10, -2.15671000E-14,  2.56676600E+04,
                      -2.80033800E+00])),
        transport=gas_transport(geom='linear',
                                diam=3.721,
                                well_depth=265.3,
                                rot_relax=2.5),
        note='121386')

species(name='C2H3',
        atoms='C:2 H:3',
        thermo=(NASA([300.00, 1000.00],
                     [ 2.45927600E+00,  7.37147600E-03,  2.10987300E-06,
                      -1.32164200E-09, -1.18478400E-12,  3.33522500E+04,
                       1.15562000E+01]),
                NASA([1000.00, 5000.00],
                     [ 5.93346800E+00,  4.01774600E-03, -3.96674000E-07,
                      -1.44126700E-10,  2.37864400E-14,  3.18543500E+04,
                      -8.53031300E+00])),
        transport=gas_transport(geom='nonlinear',
                                diam=3.721,
                                well_depth=265.3,
                                rot_relax=1.0),
        note='-12787')

species(name='C12H25',
        atoms='C:12 H:25',
        thermo=(NASA([300.00, 1385.00],
                     [-1.36787089E+00,  1.37355348E-01, -8.24076158E-05,
                       2.36421562E-08, -2.47435932E-12, -1.67660539E+04,
                       4.83521895E+01]),
                NASA([1385.00, 5000.00],
                     [ 3.79688268E+01,  5.38719464E-02, -1.82171263E-05,
                       2.80774503E-09, -1.62108420E-13, -3.12144988E+04,
                      -1.65805933E+02])),
        transport=gas_transport(geom='nonlinear',
                                diam=7.06,
                                well_depth=789.16,
                                polar=22.75,
                                rot_relax=1.0),
        note='-THERM')

species(name='C12H25O2',
        atoms='C:12 H:25 O:2',
        thermo=(NASA([300.00, 1391.00],
                     [ 7.19000677E-01,  1.47857475E-01, -9.76141389E-05,
                       3.37768226E-08, -4.89238474E-12, -3.66625786E+04,
                       3.95787186E+01]),
                NASA([1391.00, 5000.00],
                     [ 4.15594442E+01,  5.65861741E-02, -1.94673569E-05,
                       3.03391862E-09, -1.76481347E-13, -5.14188102E+04,
                      -1.81492460E+02])),
        transport=gas_transport(geom='nonlinear',
                                diam=7.06,
                                well_depth=789.16,
                                polar=22.75,
                                rot_relax=1.0),
        note='-THERM')

species(name='C12KET',
        atoms='C:12 H:24 O:3',
        thermo=(NASA([300.00, 1393.00],
                     [-5.49006560E-01,  1.62095503E-01, -1.18993817E-04,
                       4.61133228E-08, -7.41761827E-12, -6.37068665E+04,
                       4.81302194E+01]),
                NASA([1393.00, 5000.00],
                     [ 4.49391711E+01,  5.37234437E-02, -1.84844136E-05,
                       2.88118806E-09, -1.67623777E-13, -7.93966403E+04,
                      -1.95594753E+02])),
        transport=gas_transport(geom='nonlinear',
                                diam=7.06,
                                well_depth=789.16,
                                polar=22.75,
                                rot_relax=1.0))

species(name='C10H21',
        atoms='C:10 H:21',
        thermo=(NASA([300.00, 1385.00],
                     [-9.30536886E-01,  1.13137924E-01, -6.64034118E-05,
                       1.83220872E-08, -1.77128003E-12, -1.09890165E+04,
                       4.29335080E+01]),
                NASA([1385.00, 5000.00],
                     [ 3.14447580E+01,  4.52778532E-02, -1.53145696E-05,
                       2.36072411E-09, -1.36311835E-13, -2.29702700E+04,
                      -1.33634423E+02])),
        transport=gas_transport(geom='nonlinear',
                                diam=6.69,
                                well_depth=704.92,
                                polar=19.1,
                                rot_relax=1.0),
        note='-THERM')

species(name='C10H21O2',
        atoms='C:10 H:21 O:2',
        thermo=(NASA([300.00, 1391.00],
                     [ 1.01431524E+00,  1.24157438E-01, -8.21448954E-05,
                       2.85684148E-08, -4.17000221E-12, -3.08616979E+04,
                       3.48377002E+01]),
                NASA([1391.00, 5000.00],
                     [ 3.52386548E+01,  4.75793514E-02, -1.63731335E-05,
                       2.55214038E-09, -1.48474197E-13, -4.32282603E+04,
                      -1.50404303E+02])),
        transport=gas_transport(geom='nonlinear',
                                diam=6.69,
                                well_depth=704.92,
                                polar=19.1,
                                rot_relax=1.0),
        note='-THERM')

species(name='C10KET2-1',
        atoms='C:10 H:20 O:3',
        thermo=(NASA([300.00, 1393.00],
                     [-1.93722790E-01,  1.38127143E-01, -1.03141154E-04,
                       4.06829473E-08, -6.64937911E-12, -5.79149099E+04,
                       4.31123500E+01]),
                NASA([1393.00, 5000.00],
                     [ 3.85996596E+01,  4.47463697E-02, -1.54033646E-05,
                       2.40175763E-09, -1.39764748E-13, -7.12001532E+04,
                      -1.64403020E+02])),
        transport=gas_transport(geom='nonlinear',
                                diam=6.69,
                                well_depth=704.92,
                                polar=19.1,
                                rot_relax=1.0))

species(name='C7H15-2',
        atoms='C:7 H:15',
        thermo=(NASA([300.00, 1382.00],
                     [-3.79155767E-02,  7.56726570E-02, -4.07473634E-05,
                       9.32678943E-09, -4.92360745E-13, -2.35605303E+03,
                       3.37321506E+01]),
                NASA([1382.00, 5000.00],
                     [ 2.16368842E+01,  3.23324804E-02, -1.09273807E-05,
                       1.68357060E-09, -9.71774091E-14, -1.05873616E+04,
                      -8.52209653E+01])),
        transport=gas_transport(geom='nonlinear',
                                diam=6.253,
                                well_depth=459.6,
                                rot_relax=1.0))

species(name='C7H15O2',
        atoms='C:7 H:15 O:2',
        thermo=(NASA([300.00, 1392.00],
                     [ 1.51378168E+00,  8.85572745E-02, -5.92457147E-05,
                       2.11801862E-08, -3.20741722E-12, -2.19818400E+04,
                       2.76255370E+01]),
                NASA([1392.00, 5000.00],
                     [ 2.52622017E+01,  3.46652053E-02, -1.18812593E-05,
                       1.84687322E-09, -1.07234165E-13, -3.05051074E+04,
                      -1.00675588E+02])),
        transport=gas_transport(geom='nonlinear',
                                diam=6.317,
                                well_depth=561.0,
                                dipole=1.7,
                                rot_relax=1.0),
        note='-THERM')

species(name='NC7KET23',
        atoms='C:7 H:14 O:3',
        thermo=(NASA([300.00, 1394.00],
                     [ 1.97237667E-01,  1.01003617E-01, -7.54631627E-05,
                       2.92849376E-08, -4.66295964E-12, -5.04393242E+04,
                       3.49969216E+01]),
                NASA([1394.00, 5000.00],
                     [ 2.94068890E+01,  3.11132474E-02, -1.07475750E-05,
                       1.67981822E-09, -9.79195344E-14, -6.04319021E+04,
                      -1.21313991E+02])),
        transport=gas_transport(geom='nonlinear',
                                diam=6.506,
                                well_depth=581.3,
                                dipole=2.0,
                                rot_relax=1.0),
        note='-THERM')

species(name='C7H15O2H',
        atoms='C:7 H:16 O:2',
        thermo=(NASA([300.00, 1393.00],
                     [ 6.29165042E-01,  9.70053636E-02, -6.68336695E-05,
                       2.41186253E-08, -3.61669837E-12, -3.90427262E+04,
                       3.10277331E+01]),
                NASA([1393.00, 5000.00],
                     [ 2.77098165E+01,  3.48487880E-02, -1.19777002E-05,
                       1.86556340E-09, -1.08475524E-13, -4.86189131E+04,
                      -1.14905489E+02])),
        transport=gas_transport(geom='nonlinear',
                                diam=6.317,
                                well_depth=561.0,
                                dipole=1.7,
                                rot_relax=1.0),
        note='-----2')

species(name='C7H14OOH',
        atoms='C:7 H:15 O:2',
        thermo=(NASA([300.00, 1389.00],
                     [ 1.62083964E+00,  8.83636215E-02, -5.64527235E-05,
                       1.76325999E-08, -2.10369342E-12, -1.57072842E+04,
                       2.97815441E+01]),
                NASA([1389.00, 5000.00],
                     [ 2.73843966E+01,  3.17800796E-02, -1.07557689E-05,
                       1.65881427E-09, -9.58200506E-14, -2.49404488E+04,
                      -1.09739277E+02])),
        transport=gas_transport(geom='nonlinear',
                                diam=6.317,
                                well_depth=561.0,
                                dipole=1.7,
                                rot_relax=1.0),
        note='8-THRM')

species(name='O2C7H14OOH',
        atoms='C:7 H:15 O:4',
        thermo=(NASA([300.00, 1392.00],
                     [ 3.09603698E+00,  9.93182239E-02, -6.69045928E-05,
                       2.24191270E-08, -2.97843662E-12, -3.52824732E+04,
                       2.43873873E+01]),
                NASA([1392.00, 5000.00],
                     [ 3.27436761E+01,  3.30060143E-02, -1.14146253E-05,
                       1.78556283E-09, -1.04147126E-13, -4.58332974E+04,
                      -1.35817581E+02])),
        transport=gas_transport(geom='nonlinear',
                                diam=7.229,
                                well_depth=600.6,
                                dipole=1.8,
                                rot_relax=1.0),
        note='-98-TM')

species(name='C7H15CHO',
        atoms='C:8 H:16 O:1',
        thermo=(NASA([300.00, 1386.00],
                     [ 9.66850312E-01,  9.08063795E-02, -5.67710469E-05,
                       1.81650681E-08, -2.38496879E-12, -3.86587355E+04,
                       3.00918692E+01]),
                NASA([1386.00, 5000.00],
                     [ 2.61609074E+01,  3.62858837E-02, -1.24097058E-05,
                       1.92662114E-09, -1.11780863E-13, -4.79259983E+04,
                      -1.06895495E+02])),
        transport=gas_transport(geom='nonlinear',
                                diam=6.506,
                                well_depth=581.3,
                                dipole=2.0,
                                rot_relax=1.0),
        note='-THERM')

species(name='C7H15CO',
        atoms='C:8 H:15 O:1',
        thermo=(NASA([300.00, 1386.00],
                     [ 1.73697916E+00,  8.60262622E-02, -5.37492409E-05,
                       1.71184327E-08, -2.22771849E-12, -2.01298819E+04,
                       2.75674680E+01]),
                NASA([1386.00, 5000.00],
                     [ 2.57444491E+01,  3.41545888E-02, -1.16883107E-05,
                       1.81544096E-09, -1.05364440E-13, -2.89638264E+04,
                      -1.02988707E+02])),
        transport=gas_transport(geom='nonlinear',
                                diam=6.24,
                                well_depth=534.5,
                                dipole=2.58,
                                polar=15.0,
                                rot_relax=1.0),
        note='-THERM')

species(name='C6H13CHO',
        atoms='C:7 H:14 O:1',
        thermo=(NASA([300.00, 1385.00],
                     [ 1.16727179E+00,  7.87064030E-02, -4.86434224E-05,
                       1.53022620E-08, -1.96404790E-12, -3.57659062E+04,
                       2.74799549E+01]),
                NASA([1385.00, 5000.00],
                     [ 2.30172858E+01,  3.17488129E-02, -1.08471869E-05,
                       1.68296998E-09, -9.76031894E-14, -4.38361973E+04,
                      -9.14416834E+01])),
        transport=gas_transport(geom='nonlinear',
                                diam=6.506,
                                well_depth=581.3,
                                dipole=2.0,
                                rot_relax=1.0),
        note='-THERM')

species(name='C6H13CO',
        atoms='C:7 H:13 O:1',
        thermo=(NASA([300.00, 1389.00],
                     [ 7.18129174E-01,  7.97814021E-02, -5.30878535E-05,
                       1.83105964E-08, -2.61673962E-12, -1.86909366E+04,
                       2.71126725E+01]),
                NASA([1389.00, 5000.00],
                     [ 2.32412991E+01,  2.94013946E-02, -1.01210871E-05,
                       1.57812201E-09, -9.18349976E-14, -2.67973204E+04,
                      -9.47460288E+01])),
        transport=gas_transport(geom='nonlinear',
                                diam=6.506,
                                well_depth=581.3,
                                dipole=2.0,
                                rot_relax=1.0),
        note='-THERM')

species(name='C6H13',
        atoms='C:6 H:13',
        thermo=(NASA([300.00, 1380.00],
                     [ 2.29560154E-01,  6.33327323E-02, -3.24135431E-05,
                       6.46387687E-09, -9.61420424E-14,  5.25639155E+02,
                       3.08006138E+01]),
                NASA([1380.00, 5000.00],
                     [ 1.83687363E+01,  2.80268110E-02, -9.47032396E-06,
                       1.45888527E-09, -8.42002461E-14, -6.46093974E+03,
                      -6.90934018E+01])),
        transport=gas_transport(geom='nonlinear',
                                diam=5.349,
                                well_depth=489.224),
        note='-THERM')

species(name='C6H13O2',
        atoms='C:6 H:13 O:2',
        thermo=(NASA([300.00, 1393.00],
                     [ 1.62964892E+00,  7.68548886E-02, -5.17292235E-05,
                       1.87119014E-08, -2.87653697E-12, -1.90768103E+04,
                       2.47112107E+01]),
                NASA([1393.00, 5000.00],
                     [ 2.21058203E+01,  3.01631951E-02, -1.03356754E-05,