!DEVELOPMENT OF A REDUCED N-DODECANE-PAH MECHANISM AND ITS APPLICATION FOR N-DODECANE SOOT PREDICTIONS
!HU WANG, YOUNGCHUL RA, MING JIA AND ROLF. D. REITZ
!SUBMITTED TO FUEL
!100 SPECIES AND 432 REACTIONS
ELEMENTS
H C O N 
END
SPECIES
C12H26     O2        N2          CO2        H2O 
CO         H2        OH          H2O2       HO2 
H          O         CH3O        CH2O       HCO 
CH2        CH3       CH4         C2H2       C2H3 
C12H25     C12H25O2  C12KET      C10H21     C10H21O2 
C10KET2-1  C7H15-2   C7H15O2     NC7KET23 
C7H15O2H   C7H14OOH  O2C7H14OOH  C7H15CHO   C7H15CO 
C6H13CHO   C6H13CO   C6H13       C6H13O2    C6H13O 
C6H12      C6H12OOH  C6H12OOHO2  C6KET24    C6H12O 
C6H112-4   C6H11O2-4 C5H11       C5H10      C5H9 
C4H9CO     C4H9      C4H9O2      C4H8OOH    C4H8OOHO2 
C4KET23    C4H8      C4H7        C4H7O      C3H7CHO 
C3H7       C3H6      C3H5        C3H7O2     C3H6OOH
C3H7O      C3H6CHO   C2H5CHO     C2H5CO     C2H3CHO
C2H4       C2H5      CH3O2       CH2CO      CH2CHO
CH3CO      CH3CHO    CH3OH       CH2OH      CH3OCO
HCCO       C2H       C3H2        C3H3       C4H2
C4H3       C4H4      C4H5        C5H5       C6H5O
A1-        A1C2H-    A1C2H       A1C2H3     A2-
A2R5       A3-       A1          A2         A3
A4
END
REACTIONS MOLES CAL/MOLE
C12H26+H=C12H25+H2    9.0E5 2.4 4.471E3
    REV/3.93E3 2.7E0 1.126E4/
C12H26+OH=C12H25+H2O    4.7E7 1.6 -3.5E1 
    REV/6.15E5 1.9E0 2.191E4/
C12H26+O=C12H25+OH    9.54E4 2.7 2.106E3
    REV/6.33E1 3.0E0 6.798E3/
C12H26+HO2=C12H25+H2O2    3.51E14 0.0 1.769E4
    REV/4.35E11 0.0E0 8.165E3/
C12H26+O2=C12H25+HO2    4.0E13 0.0 4.715E4
    REV/1.1E9 7.0E-1 -5.41E2/
C12H25+O2=C12H25O2    1.55E12 0.0 0.0E0
    REV/1.36E23 -2.4E0 3.767E4/
C12H25O2+O2=C12KET+OH    1.12E14 0.0 1.9232712E4
C12KET=>OH+CH2O+C10H21+CO    1.5E16 0.0 4.16E4
C12KET=>OH+C3H6CHO+C7H15CHO    1.55E16 0.0 4.16E4
C12KET=>OH+C2H5CO+C2H4+C6H13CHO    1.55E16 0.0 4.16E4
C12H26+CH3=C12H25+CH4    2.71E5 2.3 7.287E3
    REV/2.14E3 2.6E0 1.455E4/
C12H26=C12H25+H         1.94E12 0.67 8.2E4 
C12H26=C10H21+C2H5      1.94E12 0.67 8.2E4 
C12H26=C7H15-2+C5H11    1.94E12 0.67 8.2E4 
C12H26=2C6H13           1.94E12 0.67 8.2E4 
C12H25=C2H4+C10H21    4.0E15 0.0 3.5E4
C12H25=C6H12+C6H13    4.0E15 0.0 3.2E4
C12H25=C5H10+C7H15-2    5.0E15 0.0 3.3E4
!=======================================
C10H21+O2=C10H21O2    6.2E11 0.0 0.0E0
    REV/1.36E23 -2.4E0 3.767E4/
C10H21O2+O2=C10KET2-1+OH    1.45E14 0.0 1.9232712E4
C10KET2-1=>OH+CH3CO+C7H15CHO    6.05E15 0.0 4.16E4
C10KET2-1=>OH+C2H5CO+C6H13CHO    6.05E15 0.0 4.16E4
C10H21=C4H8+C6H13    4.0E15 0.0 3.2E4
C10H21=C5H10+C5H11    4.0E15 0.0 3.3E4
!===================================
C7H15CHO+O2=C7H15CO+HO2    2.0E13 0.5 4.22E4
    REV/1.0E7 0.0E0 4.0E4/
C7H15CHO+OH=C7H15CO+H2O    2.69E10 0.8 -3.4E2
    REV/1.74E10 8.0E-1 3.12E4/
C7H15CHO+O=C7H15CO+OH    5.0E12 0.0 1.79E3
    REV/1.0E12 0.0E0 1.9E4/
C7H15CHO+HO2=C7H15CO+H2O2    2.8E12 0.0 1.36E4
    REV/1.0E12 0.0E0 1.0E4/
C7H15CHO+H=C7H15CO+H2    4.0E13 0.0 4.2E3
    REV/1.8E13 0.0E0 2.4E4/
C7H15CO=C7H15-2+CO    1.0E11 0.0 9.6E3
    REV/1.0E11 0.0E0 0.0E0/
C7H15-2=C4H9+C3H6    4.4E16 -0.89 3.013002E4
C7H15-2=C4H8+C3H7    2.858E10 0.19 2.290989E4
C7H15-2+O2=C7H15O2    3.754E12 0.0 0.0E0
    REV/9.879E21 -1.97E0 3.785994E4/
C7H15O2+HO2=C7H15O2H+O2    8.75E9 0.0 -3.2751E3
C7H15O2+H2O2=HO2+C7H15O2H    2.4E13 0.0 1.0E4
    REV/2.4E12 0.0E0 1.0E4/
C7H15O2=C7H14OOH    5.5E10 0.0 2.08499E4
    REV/2.143E9 -8.0E-2 8.21009E3/
C7H14OOH=>OH+C3H7CHO+C3H6    1.6E19 -1.49 2.679995E4
C7H14OOH=C4H8+C3H6+HO2    2.134E16 -0.96 2.479995E4
C7H14OOH+O2=O2C7H14OOH    5.504E12 0.0 0.0E0
    REV/1.597E21 -2.0E0 3.652008E4/
O2C7H14OOH=NC7KET23+OH    1.375E10 0.0 1.78499E4
    REV/5.561E1 1.94E0 4.347992E4/
NC7KET23=>CH3CHO+C4H9CO+OH    1.05E16 0.0 4.15999E4
!==================================
C6H13CHO+O2=C6H13CO+HO2    2.0E13 0.5 4.22E4
    REV/1.0E7 0.0E0 4.0E4/
C6H13CHO+OH=C6H13CO+H2O    2.69E10 0.8 -3.4E2
    REV/1.74E10 8.0E-1 3.12E4/
C6H13CHO+O=C6H13CO+OH    5.0E12 0.0 1.79E3
    REV/1.0E12 0.0E0 1.9E4/
C6H13CHO+HO2=C6H13CO+H2O2    2.8E12 0.0 1.36E4
    REV/1.0E12 0.0E0 1.0E4/
C6H13CHO+H=C6H13CO+H2    4.0E13 0.0 4.2E3
    REV/1.8E13 0.0E0 2.4E4/
C6H13CO=C6H13+CO    1.0E11 0.0 9.6E3
    REV/1.0E11 0.0E0 0.0E0/
C6H13+O2=C6H13O2    3.77E13 0.0 0.0E0
C6H13O2=C6H12OOH    4.0E10 0.0 2.085E4
C6H12OOH+O2=C6H12OOHO2    1.05E13 0.0 0.0E0
C6H12OOHO2=C6KET24+OH    2.0E10 0.0 1.785E4
C6KET24=>CH2O+C4H9CO+OH    5.0E16 0.0 3.9E4
C6H13+HO2=C6H13O+OH    7.0E12 0.0 -1.0E3
    REV/3.073E17 -1.15E0 2.807E4/
C6H13+CH3O2=C6H13O+CH3O    7.0E12 0.0 -1.0E3
    REV/1.922E16 -8.5E-1 3.231E4/
C6H13O=C4H9+CH3CHO    2.365E22 -2.61 1.962E4
    REV/1.0E11 0.0E0 1.19E4/
C6H13=C3H6+C3H7    3.654E19 -1.8 3.017E4
    REV/1.5E11 0.0E0 7.2E3/
C6H13+C6H13O2=2C6H13O    7.0E12 0.0 -1.0E3
    REV/3.414E15 -7.6E-1 3.142E4/
C6H12OOH=>C6H12O+OH    7.5E10 0.0 1.525E4
C6H12O+OH=>C3H6+C2H5CO+H2O    2.5E12 0.0 0.0E0
C6H12O+HO2=>C3H6+C2H5CO+H2O2    5.0E12 0.0 1.77E4
C6H13O2+CH3O2=>C6H13O+CH3O+O2    5.6E16 -1.61 1.86E3
2C6H13O2=>O2+2C6H13O    5.6E16 -1.61 1.86E3
C6H13O2=C6H12+HO2    5.044E38 -8.11 4.049E4
    REV/2.876E28 -5.77E0 1.857E4/
C6H12=C2H5+C4H7    1.5E15 0.0 7.1E4
C6H12+OH=>C4H9+CH3CHO    2.0E11 0.0 -4.0E3
C6H12+O=>C4H9+CH3CO    1.0E11 0.0 -1.05E3
C6H12+H=C6H112-4+H2    3.376E5 2.36 2.07E2
    REV/4.384E6 2.1E0 2.033E4/
C6H12+OH=C6H112-4+H2O    6.81E3 2.64 -1.919E3
    REV/1.554E6 2.38E0 3.336E4/
C6H12+CH3=C6H112-4+CH4    3.69E0 3.31 4.002E3
    REV/1.252E3 3.05E0 2.46E4/
C6H12+HO2=C6H112-4+H2O2    9.64E2 2.55 1.053E4
    REV/1.609E6 1.96E0 1.434E4/
C6H112-4+HO2=C6H11O2-4+OH    4.82E12 0.0 0.0E0
    REV/9.704E15 -1.13E0 1.579E4/
C6H112-4+CH3O2=C6H11O2-4+CH3O    9.64E12 0.0 0.0E0
    REV/9.478E17 -1.71E0 2.056E4/
C6H11O2-4=C2H3CHO+C3H7    1.427E20 -2.04 1.123E4
    REV/1.0E11 0.0E0 9.6E3/
C6H11O2-4=C2H5CHO+C3H5    2.346E22 -2.58 2.931E4
    REV/1.0E11 0.0E0 9.6E3/
!=======================================
C5H11=C2H4+C3H7    1.603E12 0.451 2.943E4
    REV/8.8E3 2.48E0 6.13E3/
C5H11=C3H6+C2H5    6.115E11 0.635 2.936E4
    REV/8.8E3 2.48E0 6.13E3/
C5H11=C5H10+H    3.988E11 0.41 3.522E4
    REV/2.5E11 5.1E-1 2.62E3/
C5H10=C2H5+C3H5    9.864E21 -2.086 7.506E4
    REV/4.0E12 0.0E0 -5.96E2/
C5H10=CH3+C4H7    6.486E19 -1.367 7.632E4
    REV/8.0E12 0.0E0 -5.96E2/
C5H10+H=C5H9+H2    3.376E5 2.36 2.07E2
    REV/3.096E5 2.53E0 2.032E4/
C5H10+O=C5H9+OH    6.6E5 2.43 1.21E3
    REV/2.658E5 2.6E0 1.923E4/
C5H10+O=>C4H9+HCO    1.0E11 0.0 0.0E0
C5H10+O=>C3H7+CH3CO    1.0E11 0.0 0.0E0
C5H10+O=C3H6+CH3CHO    1.0E10 0.0 0.0E0
    REV/1.0E12 0.0E0 8.1E4/
C5H10+OH=C5H9+H2O    2.764E4 2.64 -1.919E3
    REV/1.097E5 2.81E0 3.335E4/
C5H10+OH=>C4H9+CH2O    1.0E11 0.0 0.0E0
C5H10+OH=C3H7+CH3CHO    2.0E10 0.0 -4.0E3
    REV/2.0E13 0.0E0 2.0E4/
C5H10+CH3=C5H9+CH4    3.69E0 3.31 4.002E3
    REV/8.84E1 3.48E0 2.459E4/
C5H10+O2=C5H9+HO2    2.2E12 0.0 3.722E4
    REV/3.665E10 4.9E-1 -1.52E2/
C5H10+HO2=C5H9+H2O2    4.82E3 2.55 1.053E4
    REV/1.136E5 2.39E0 1.433E4/
C5H10+CH3O=C5H9+CH3OH    4.0E1 2.9 8.609E3
    REV/1.769E1 3.09E0 2.699E4/
C5H9=C3H6+C2H3    5.814E11 0.17 3.585E4
    REV/1.0E11 0.0E0 7.8E3/
C5H9=C2H4+C3H5    7.157E16 -1.42 1.775E4
    REV/1.0E11 0.0E0 7.8E3/
!=============================
C4H9CO=C4H9+CO    1.0E11 0.0 9.6E3
C4H9=C3H6+CH3    3.682E18 -1.4 3.022992E4
C4H9=C4H8+H    1.159E17 -1.17 3.815989E4
C4H9=C2H5+C2H4    3.749E18 -1.41 2.958E4
    REV/3.3E11 0.0E0 7.2E3/
C4H9+O2=C4H9O2    5.05E12 0.0 0.0E0
    REV/6.155E19 -1.38E0 3.551E4/
C4H9O2=C4H8OOH    2.9E11 0.0 2.685E4
    REV/3.994E10 -2.0E-1 1.393E4/
C4H8OOH=>OH+CH2O+C3H6    6.637E13 -0.16 2.99E4
C4H8OOH+O2=C4H8OOHO2    3.77E13 0.0 0.0E0
    REV/4.516E22 -2.22E0 3.788E4/
C4H8OOHO2=C4KET23+OH    5.0E12 0.0 2.385E4
    REV/8.356E3 1.54E0 4.91E4/
C4KET23=>C2H5CHO+HCO+OH    1.05E16 0.0 4.16E4
C4KET23=>CH3CHO+CH2CHO+OH    1.05E16 0.0 4.16E4
C4KET23=>CH2O+C2H5CO+OH    1.5E16 0.0 4.2E4
C4KET23=>CH3CHO+CH3CO+OH    1.05E16 0.0 4.16E4
C4H8=C2H3+C2H5    1.0E19 -1.0 9.677008E4
C4H8=H+C4H7    4.107E18 -1.0 9.73499E4
C4H8+CH3=C4H7+CH4    1.0E11 0.0 7.29995E3
C4H8+H=C4H7+H2    5.0E13 0.0 3.9001E3
C4H8+OH=C4H7+H2O    2.25E13 0.0 2.21702E3
C4H8+HO2=C4H7+H2O2    1.4E12 0.0 1.49001E4
C4H8+O2=C4H7+HO2    2.7E13 0.0 3.320005E4
C4H8+OH=C3H7+CH2O    1.0E12 0.0 0.0E0
C4H8+O=C3H6+CH2O    7.23E5 2.34 -1.04995E3
C4H8+O=CH3CHO+C2H4    1.3E13 0.0 8.499E2
C4H8+O=CH3CO+C2H5    1.3E13 0.0 8.499E2
C4H8+OH=CH3CHO+C2H5    1.0E12 0.0 0.0E0
C3H5+CH3=C4H8    5.0E12 0.0 0.0E0
    REV/5.0E15 0.0E0 7.1E4/
C4H7=C2H4+C2H3    1.0E11 0.0 3.7E4
    REV/5.0E10 0.0E0 7.0E3/
C4H7+HO2=C4H7O+OH    7.0E12 0.0 -1.0E3
    REV/1.008E11 2.6E-1 1.689E4/
C4H7+CH3O2=CH3O+C4H7O    7.0E12 0.0 -1.0E3
    REV/2.131E15 -7.5E-1 1.681E4/
C4H7O=CH3CHO+C2H3    7.94E14 0.0 1.9E4
    REV/1.0E10 0.0E0 2.0E4/
C4H7O=C3H5+CH2O    1.013E18 -1.45 3.084E4
    REV/1.0E11 0.0E0 1.26E4/
C2H5+C4H7=C2H4+C4H8    9.24E6 1.5 -9.62E2
!-----------------------------------
C4H4+H=>C2H3+C2H2    2.0E13 0.0 1.24E4
C4H4+H=>C4H3+H2    3.1E14 0.0 1.45E4
C4H3+H2=>C4H4+H    2.8E12 0.0 1.12E4
C2H3+C4H4=>C2H4+C4H3    5.0E11 0.0 1.63E4
C4H3+C2H4=>C2H3+C4H4    3.5E11 0.0 1.34E4
C4H4+OH=C4H3+H2O    1.0E7 2.0 2.0E3
2C2H2=C4H3+H    1.0E12 0.0 6.41E4
C4H3+O2=CH2CO+HCCO    1.0E12 0.0 0.0E0
!===================================
C3H6CHO=C2H3CHO+CH3    3.17E14 -0.4 2.99E4
    REV/1.23E11 0.0E0 7.8E3/
C3H6CHO=C3H6+HCO    8.25E12 -0.2 2.19E4
    REV/1.0E11 0.0E0 6.0E3/
C3H6CHO=C2H4+CH2CHO    7.4E11 0.0 2.197E4
    REV/2.11E11 0.0E0 7.35E3/
!------------------------------
C2H5CHO=C2H5+HCO    9.85E18 -0.73 8.171E4
C2H5CO=C2H5+CO    2.46E23 -3.208 1.755E4
    REV/1.51E11 0.0E0 4.81E3/
!=====================================
C3H7=CH3+C2H4    4.568E13 -0.55 2.84E4
    REV/4.1E11 0.0E0 7.204E3/
C3H7=H+C3H6    2.667E15 -0.64 3.682E4
    REV/1.0E13 0.0E0 2.5E3/
C3H7+O2=C3H6+HO2    6.0E10 0.0 3.0E3
    REV/4.0E10 0.0E0 1.75E4/
C3H7+OH=C3H6+H2O    2.41E13 0.0 0.0E0
C3H7+O=CH3CHO+CH3    4.818E13 0.0 0.0E0
C3H7+H=C2H5+CH3    2.0E13 0.0 0.0E0
    REV/4.822E9 6.9E-1 1.209E4/
C3H7+HO2=C3H7O+OH    7.0E12 0.0 -1.0E3
    REV/1.098E13 2.3E-1 2.7E4/
C3H7+CH3O2=C3H7O+CH3O    1.4E12 0.0 -1.0E3
    REV/1.072E15 -3.5E-1 3.176E4/
C3H7+O2=C3H7O2    4.52E12 0.0 0.0E0
    REV/2.4E20 -1.616E0 3.596E4/
2C3H7O2=>O2+2C3H7O    4.2E15 -1.61 1.86E3
C3H7O2+CH3=C3H7O+CH3O    1.4E12 0.0 -1.0E3
    REV/2.303E12 1.6E-1 2.619E4/
C3H7O2+C3H7=2C3H7O    2.8E11 0.0 -1.0E3
    REV/1.075E13 1.0E-1 2.988E4/
C3H7O2+CH3O2=>C3H7O+CH3O+O2    4.2E15 -1.61 1.86E3
C3H7O=C2H5+CH2O    1.394E17 -0.87 1.977E4
    REV/1.0E11 0.0E0 1.19E4/
C3H7O=CH3+CH3CHO    3.845E16 -1.25 2.049E4
    REV/1.5E11 0.0E0 1.29E4/
C3H7O2=C3H6OOH    7.5E10 0.0 2.69E4
    REV/5.312E12 -5.6E-1 1.118E4/
C3H6OOH=C3H6+HO2    3.66E19 -2.14 1.823E4
    REV/5.818E22 -3.23E0 1.396E4/
C3H6OOH=>OH+CH2O+C2H4    1.16E17 -1.1 3.257E4
!---------------------------
C3H6=C2H3+CH3    2.73E62 -13.28 1.2320005E5
C3H6+O=>CH2CO+CH3+H    2.5E7 1.76 7.6E1
C3H6+O=C2H5+HCO    1.58E7 1.76 -1.21606E3
C3H6+H=C2H4+CH3    4.83E33 -5.81 1.85E4
C3H6+CH3=C3H5+CH4    2.21E0 3.5 5.675E3
    REV/2.65E1 3.51E0 2.318E4/
C3H6+H=C3H5+H2    1.73E5 2.5 2.4921E3
    REV/7.93E4 2.51E0 1.95201E4/
C3H6+HO2=C3H5+H2O2    1.5E11 0.0 1.419E4
    REV/5.87E5 1.33E0 9.7591E3/
C3H6+O=C3H5+OH    5.24E11 0.7 5.8841E3
    REV/1.06E11 7.1E-1 2.082E4/
C3H6+OH=C3H5+H2O    3.12E6 2.0 -2.98E2
    REV/6.19E6 2.01E0 3.188E4/
C3H6=C3H5+H    2.01E61 -13.26 1.185E5
    REV/4.89E56 -1.225E1 2.80801E4/
C3H5+HO2=C3H6+O2    1.08E8 0.82 -9.84E2
    REV/2.0E12 0.0E0 6.29001E4/
C3H5+O2=CH2O+CH3CO    3.71E25 -3.96 7.043E3
C3H5+O2=CH3CHO+HCO    4.34E12 0.0 0.0E0
    REV/1.61E17 -1.27E0 9.65301E4/
C3H5=C2H2+CH3    9.6E39 -8.17 4.20301E4
!-------------------------------
C2H3CHO+OH=C2H3+CO+H2O    9.24E5 1.5 -9.62E2
C2H3CHO+H=C2H3+CO+H2    1.34E12 0.0 3.3E3
C2H3CHO+O=C2H3+CO+OH    5.94E11 0.0 1.868E3
C2H3CHO+HO2=C2H3+CO+H2O2    3.01E11 0.0 1.193E4
C2H3CHO+CH3=C2H3+CO+CH4    2.608E5 1.78 5.911E3
!--------------------------------------
C2H5+H=2CH3    3.61E13 0.0 0.0E0
C2H5+O=CH3CHO+H    5.0E13 0.0 0.0E0
C2H5+HO2=CH3+CH2O+OH    3.2E12 0.0 2.0E3
C2H5+O2=C2H4+HO2    1.22E30 -5.76 1.00999E4
C2H5+C2H3=2C2H4    3.0E12 0.0 0.0E0
    REV/4.82E14 0.0E0 7.153011E4/
C2H5+CH3=CH4+C2H4    1.95E13 -0.5 0.0E0
H+C2H4(+M)=C2H5(+M)    1.081E12 0.45 1.82194E3
    H2/2.0/
    H2O/5.0/
    CO/2.0/
    CO2/3.0/
    LOW/1.112E34 -5.0E0 4.4479E3/
    TROE/1.0E0 1.0E-15 9.5E1 2.0E2/
!----------------------------------
C2H4+CH3O=C2H3+CH3OH    1.2E11 0.0 6.75E3
C2H4+O=CH3+HCO    1.02E7 1.88 1.7902E2
    REV/2.851E8 1.05E0 3.177008E4/
C2H4(+M)=C2H2+H2(+M)    1.8E13 0.0 7.6E4
    LOW/1.5E15 0.0E0 5.544312E4/
C2H4+H=C2H3+H2    8.42E-3 4.62 2.58293E3
C2H4+OH=C2H3+H2O    8.08E13 0.0 5.95507E3
C2H4+CH3=C2H3+CH4    6.62E0 3.7 9.5E3
C2H4+O2=C2H3+HO2    4.0E13 0.0 5.820005E4
C2H4+O=CH2CHO+H    3.39E6 1.88 1.7902E2
C2H3+H(+M)=C2H4(+M)    6.1E12 0.27 2.8011E2
    LOW/9.8E29 -3.86E0 3.32003E3/
    TROE/7.82E-1 2.08E2 2.663E3 6.095E3/
!----------------------------------
C2H3+O2=C2H2+HO2    2.12E-6 6.0 9.48399E3
    REV/1.114E-7 6.33E0 1.757003E4/
C2H3+H=C2H2+H2    2.0E13 0.0 2.5E3
C2H3+O2=CH2O+HCO    1.7E29 -5.31 6.5E3
C2H3+O2=CH2CHO+O    3.5E14 -0.61 5.26004E3
!------------------------------------
C2H2+O=CH2+CO    6.12E6 2.0 1.9001E3
C2H2+H(+M)=C2H3(+M)    3.11E11 0.58 2.58891E3
    H2/2.0/
    H2O/5.0/
    CO/2.0/
    CO2/3.0/
    LOW/2.254E40 -7.269E0 6.57696E3/
    TROE/1.0E0 1.0E-15 6.75E2 1.0E15/
!===================================
CH3CHO=CH3+HCO    2.61E15 0.15 8.055E4
    REV/2.0E13 0.0E0 0.0E0/
CH3CHO+O2=CH3CO+HO2    3.01E13 0.0 3.915E4
    REV/8.552E10 3.2E-1 -1.94E3/
CH3CHO+OH=CH3CO+H2O    2.0E6 1.8 1.3E3
    REV/1.354E6 1.79E0 3.285E4/
CH3CHO+H=CH3CO+H2    1.34E13 0.0 3.3E3
    REV/2.096E12 -1.0E-2 1.969E4/
CH3CHO+O=CH3CO+OH    5.94E12 0.0 1.868E3
    REV/4.08E11 -1.0E-2 1.617E4/
CH3CHO+HO2=CH3CO+H2O2    3.01E12 0.0 1.193E4
    REV/1.21E13 -3.4E-1 1.201E4/
CH3CHO+CH3=CH3CO+CH4    2.61E6 1.78 5.911E3
    REV/1.066E7 1.77E0 2.279E4/
CH2CHO+O2=>CH2O+CO+OH    2.0E13 0.0 4.20005E3
!---------------------------------
CH3CO(+M)=CH3+CO(+M)    3.0E12 0.0 1.671989E4
    LOW/1.2E15 0.0E0 1.251793E4/
CH3CO+CH3=CH2CO+CH4    5.0E13 0.0 0.0E0
!----------------------------------
CH2CHO=CH2CO+H    3.094E15 -0.26 5.082003E4
!------------------------------------
CH2CO+H=CH3+CO    1.1E13 0.0 3.4001E3
CH2CO+O=CH2+CO2    1.75E12 0.0 1.3499E3
CH2CO(+M)=CH2+CO(+M)    3.0E14 0.0 7.097992E4
    LOW/3.6E15 0.0E0 5.927008E4/
!-------------------------------------
HCCO+OH=2HCO    1.0E13 0.0 0.0E0
    REV/4.82E13 0.0E0 4.036E4/
HCCO+H=CH2+CO    1.1E14 0.0 0.0E0
    REV/6.66E13 0.0E0 3.926E4/
HCCO+O=H+2CO    8.0E13 0.0 0.0E0
HCCO+O2=CO2+HCO    2.4E11 0.0 -8.54E2
    REV/1.474E14 0.0E0 1.336E5/
!-------------------------------------
CH3OCO=CH3+CO2    3.59E13 -0.17 1.601E4
    REV/4.76E7 1.54E0 3.47E4/
CH3OCO=CH3O+CO    1.431E15 -0.04 2.377E4
    REV/1.55E6 2.02E0 5.73E3/
!-----------------------------------
CH3OH(+M)=CH3+OH(+M)    2.084E18 -0.615 9.2540551E4
    LOW/1.5E43 -6.99452E0 9.79921913E4/
    TROE/-4.748E-1 3.5578477E4 1.11646E3 9.023E3/
CH3OH(+M)=CH2OH+H(+M)    7.896E-3 5.038 8.446737E4
    LOW/3.39E42 -7.24388E0 1.05230269E5/
    TROE/-7.391E1 3.7053795E4 4.14964E4 5.22E3/
CH3OH+H=CH2OH+H2    3.07E5 2.55 5.44E3
CH3OH+H=CH3O+H2    1.99E5 2.56 1.03E4
CH3OH+O=CH2OH+OH    3.88E5 2.5 3.08E3
CH3OH+OH=CH2OH+H2O    3.08E4 2.65 -8.067E2
CH3OH+OH=CH3O+H2O    1.5E2 3.03 -7.63E2
CH3OH+O2=CH2OH+HO2    2.05E13 0.0 4.49E4
CH3OH+HO2=CH2OH+H2O2    1.08E4 2.55 1.053E4
CH3OH+CH3=CH2OH+CH4    3.19E1 3.17 7.172E3
CH3OH+CH3O=CH2OH+CH3OH    3.0E11 0.0 4.074E3
CH3OH+HCO=CH2OH+CH2O    9.63E3 2.9 1.311E4
!-----------------------------------
2CH3O=CH3OH+CH2O    6.03E13 0.0 0.0E0
CH2OH+CH3O=CH2O+CH3OH    2.4E13 0.0 0.0E0
2CH2OH=CH2O+CH3OH    3.0E12 0.0 0.0E0
CH2OH+O2=CH2O+HO2    2.41E14 0.0 5.017E3
CH2OH+H=CH2O+H2    6.0E12 0.0 0.0E0
CH2OH+HO2=CH2O+H2O2    1.2E13 0.0 0.0E0
CH2OH+HCO=2CH2O    1.8E14 0.0 0.0E0
CH2OH+OH=H2O+CH2O    2.4E13 0.0 0.0E0
CH2OH+O=OH+CH2O    4.2E13 0.0 0.0E0
!===================================
CH3+H(+M)=CH4(+M)    2.14E15 -0.4 0.0E0
    H2/2.0/
    H2O/5.0/
    CO/2.0/
    CO2/3.0/
    LOW/3.31E30 -4.0E0 2.10803E3/
    TROE/0.0E0 1.0E-15 1.0E-15 4.0E1/
CH4+H=CH3+H2    1.727E4 3.0 8.22395E3
    REV/6.61E2 3.0E0 7.74402E3/
CH4+OH=CH3+H2O    1.93E5 2.4 2.10612E3
    REV/4.82E2 2.9E0 1.485994E4/
CH4+O=CH3+OH    2.13E6 2.21 6.47992E3
    REV/3.557E4 2.21E0 3.91993E3/
CH3+HO2=CH4+O2    7.2E12 0.0 0.0E0
CH4+HO2=CH3+H2O2    3.42E11 0.0 1.928991E4
CH3+HO2=CH3O+OH    2.2E13 0.0 0.0E0
CH3+OH=CH2O+H2    2.25E13 0.0 4.29995E3
CH3+O=CH2O+H    8.0E13 0.0 0.0E0
CH3+O2=CH3O+O    1.995E18 -1.57 2.921009E4
CH2+H+M=CH3+M    2.107E11 1.0 -1.961998E4
    REV/1.968E16 0.0E0 9.252008E4/
CH3+OH=CH2+H2O    3.0E6 2.0 2.5E3
CH3+O2=CH2O+OH    7.47E11 0.0 1.425E4
!----------------------------
CH3O2+M=CH3+O2+M    4.343E28 -3.42 3.046989E4
    REV/5.44E25 -3.3E0 0.0E0/
CH3O2+CH3=2CH3O    7.0E12 0.0 -1.0E3
2CH3O2=>O2+2CH3O    1.4E16 -1.61 1.85994E3
2CH3O2=>CH2O+CH3OH+O2    3.11E14 -1.61 -1.051E3
CH3O2+OH=CH3OH+O2    6.0E13 0.0 0.0E0
CH3O(+M)=CH2O+H(+M)    5.45E13 0.0 1.35E4
    LOW/2.344E25 -2.7E0 3.05999E4/
CH3O+O2=CH2O+HO2    5.5E10 0.0 2.424E3
CH2O+M=HCO+H+M    6.283E29 -3.57 9.320005E4
    REV/2.66E24 -2.57E0 4.271E2/
CH2O+OH=HCO+H2O    3.43E9 1.18 -4.4694E2
CH2O+H=HCO+H2    9.334E8 1.5 2.9761E3
CH2O+O=HCO+OH    4.16E11 0.57 2.76195E3
CH2O+CH3=HCO+CH4    3.636E-6 5.42 9.9809E2
CH2O+HO2=HCO+H2O2    5.82E-2 4.53 6.55688E3
CH2+O2=CH2O+O    3.29E21 -3.3 2.86807E3
!=======================================
CH2+O2=CO+H2O    7.28E19 -2.54 1.80903E3
CH2+O2=HCO+OH    1.29E20 -3.3 2.8394E2
CH2+O2=>CO2+2H    3.29E21 -3.3 2.86807E3
CH2+O2=CO2+H2    1.01E21 -3.3 1.50789E3
!----------------------------------
HCO+OH=CO+H2O    1.02E14 0.0 0.0E0
HCO+M=H+CO+M    1.86E17 -1.0 1.7E4
    H2/2.5/
    H2O/12.0/
    CO/1.9/
    CO2/3.8/
    REV/6.467E13 0.0E0 -4.4192E2/
HCO+H=CO+H2    7.34E13 0.0 0.0E0
HCO+O=CO+OH    3.02E13 0.0 0.0E0
HCO+CH3=CH4+CO    1.21E14 0.0 0.0E0
HCO+HO2=CH2O+O2    2.974E10 0.33 -3.8609E3
HCO+O2=CO+HO2    7.58E12 0.0 4.0989E2
!----------------------------------
CO+OH=CO2+H    1.4E5 1.95 -1.34704E3
CO+HO2=CO2+OH    3.01E13 0.0 2.3E4
CO+O(+M)=CO2(+M)    1.8E10 0.0 2.38408E3
    H2/2.5/
    H2O/12.0/
    CO/1.9/
    CO2/3.8/
    LOW/1.35E24 -2.788E0 4.19097E3/
CO+O2=CO2+O    1.068E-15 7.13 1.332003E4
!====================================
H+O2=O+OH    1.97E14 0.0 1.653991E4
    REV/1.555E13 0.0E0 4.2495E2/
O+H2=H+OH    5.08E4 2.67 6.29207E3
O+H2O=2OH    2.97E6 2.02 1.34001E4
    REV/3.013E5 2.02E0 -3.8499E3/
OH+H2=H+H2O    2.16E8 1.51 3.42997E3
    REV/9.352E8 1.51E0 1.858007E4/
H+OH+M=H2O+M    2.25E22 -2.0 0.0E0
    H2/2.5/
    H2O/12.0/
    CO/1.9/
    CO2/3.8/
    REV/1.837E27 -3.0E0 1.225999E5/
H+O2(+M)=HO2(+M)    1.475E12 0.6 0.0E0
    H2/2.5/
    H2O/12.0/
    CO/1.9/
    CO2/3.8/
    LOW/3.5E16 -4.1E-1 -1.11592E3/
    TROE/5.0E-1 1.0E-30 1.0E30 1.0E100/
HO2+O=OH+O2    3.25E13 0.0 0.0E0
HO2+H=2OH    7.08E13 0.0 2.9995E2
HO2+H=H2+O2    1.66E13 0.0 8.2003E2
H2O2+H=H2O+OH    2.41E13 0.0 3.96989E3
O+H+M=OH+M    4.72E18 -1.0 0.0E0
    H2/2.5/
    H2O/12.0/
    CO/1.9/
    CO2/3.8/
    REV/3.909E22 -2.0E0 1.0529995E5/
2O+M=O2+M    6.17E15 -0.5 0.0E0
    H2/2.5/
    H2O/12.0/
    CO/1.9/
    CO2/3.8/
    REV/6.473E20 -1.5E0 1.215E5/
H2+M=2H+M    4.57E19 -1.4 1.044001E5
    H2/2.5/
    H2O/12.0/
    CO/1.9/
    CO2/3.8/
    REV/2.423E15 -4.0E-1 -3.03991E3/
H2O2+O=OH+HO2    9.55E6 2.0 3.96989E3
H2O2+H=H2+HO2    4.82E13 0.0 7.95005E3
!---------------------------------------
H2O2+O2=2HO2    1.839E14 -0.66 3.954995E4
    REV/1.3E11 0.0E0 -1.62906E3/
H2O2+OH=H2O+HO2    2.32E14 0.0 9.55999E3
HO2+OH=H2O+O2    2.89E12 0.0 -5.0E2
2OH(+M)=H2O2(+M)    1.236E14 -0.37 0.0E0
    H2/2.5/
    H2O/12.0/
    CO/1.9/
    CO2/3.8/
    LOW/3.041E30 -4.63E0 2.049E3/
    TROE/4.7E-1 1.0E2 2.0E3 1.0E15/
!==================================
 H2+C2H<=>C2H2+H     0.1080E+14      0.0000  0.2165E+04
 C2H2+C2H<=>C4H2+H     0.9030E+14      0.0000  0.0000E+00
 C2H2+OH<=>C2H+H2O     0.6000E+14      0.0000  0.1292E+05
 C2H2+M<=>C2H+H+M     0.1140E+18      0.0000  0.1068E+06
O2/ 0.400/      H2O/ 6.500/     CO/ 0.750/                                                                                      
 C4H2+O<=>C3H2+CO     0.7890E+13      0.0000  0.1348E+04
 C4H2+OH<=>C3H2+HCO     0.6680E+13      0.0000  -.4087E+03
 2CH2<=>C2H2+H2     0.1200E+14      0.0000  0.7959E+03
 2CH2<=>C2H2+2H     0.1080E+15      0.0000  0.7959E+03
 C2H+C2H3<=>2C2H2     0.1900E+14      0.0000  0.0000E+00
 C2H+OH<=>CH2+CO     0.1810E+14      0.0000  0.0000E+00
 C2H3+O<=>CO+CH3     0.3000E+14      0.0000  0.0000E+00
 C2H3+OH<=>C2H2+H2O     0.5000E+13      0.0000  0.0000E+00
 C2H5+O<=>CH2O+CH3     0.6620E+14      0.0000  0.0000E+00
 C3H3+O<=>C2H2+CO+H     0.1390E+15      0.0000  0.0000E+00
 C3H3+OH<=>C3H2+H2O     0.2000E+14      0.0000  0.0000E+00
 C4H3+M<=>C4H2+H+M     0.1120E+17      0.0000  0.4651E+05
O2/ 0.400/      H2O/ 6.500/     CO/ 0.750/                                                                                      
 C2H2+CH2<=>C3H3+H     0.1200E+14      0.0000  0.6577E+04
 2C2H2<=>C4H2+H2     0.1510E+14      0.0000  0.4242E+05
 2C2H3<=>C2H2+C2H4     0.1500E+14      0.0000  0.0000E+00
 2C2H3<=>C4H5+H     0.4000E+14      0.0000  0.0000E+00
 C2H3+CH2O<=>C2H4+HCO     0.5420E+04      2.8100  0.5824E+04
 C2H3+H2O2<=>C2H4+HO2     0.1210E+11      0.0000  -.5901E+03
 C2H3+HCO<=>C2H4+CO     0.2500E+14      0.0000  0.0000E+00
 C2H4+C2H<=>C4H4+H     0.1200E+14      0.0000  0.0000E+00
 C3H2+O<=>C2H+H+CO     0.6800E+14      0.0000  0.0000E+00
 C3H2+OH<=>C2H2+CO+H     0.5000E+14      0.0000  0.0000E+00
 C3H3+O<=>CH2O+C2H     0.1400E+15      0.0000  0.0000E+00
 C3H3+H<=>C3H2+H2     0.5000E+13      0.0000  0.0000E+00
 C3H3+OH<=>HCO+C2H3     0.4000E+14      0.0000  0.0000E+00
 C4H2+H<=>C4H3     0.1100E+31     -4.9200  0.1073E+05
 C4H2+H2<=>C4H4     0.4000E+15      0.0000  0.5325E+05
 C2H2+C2H<=>C4H3     0.4170E+37     -7.3000  0.8723E+04
 C3H2+CH2<=>C4H3+H     0.3000E+14      0.0000  0.0000E+00
 C4H3+H<=>C4H2+H2     0.5000E+14      0.0000  0.0000E+00
 C4H3+O<=>CH2CO+C2H     0.2000E+14      0.0000  0.0000E+00
 C4H3+OH<=>C4H2+H2O     0.3000E+14      0.0000  0.0000E+00
 C4H3+H2<=>C2H2+C2H3     0.5010E+11      0.0000  0.1987E+05
 C4H3+C2H3<=>2C3H3     0.4000E+13      0.0000  0.0000E+00
 C4H4<=>2C2H2     0.3400E+14      0.0000  0.7664E+05
 C4H4+M<=>C4H3+H+M     0.1100E+21      0.0000  0.9863E+05
 C4H4+O<=>HCO+C3H3     0.3200E+09      1.4400  0.5494E+03
 C3H3+CH2<=>H+C4H4     0.4000E+14      0.0000  0.0000E+00
 C4H4+C2H<=>C4H2+C2H3     0.1000E+14      0.0000  0.0000E+00
 C4H4+C2H<=>C4H3+C2H2     0.4000E+14      0.0000  0.0000E+00
 C4H5<=>C2H3+C2H2     0.1000E+15      0.0000  0.4361E+05
 C4H5(+M)<=>C4H4+H(+M)     0.1000E+15      0.0000  0.4968E+05
 LOW/0.2000E+16  0.0000E+00  0.4173E+05/
 C4H5+O2<=>C4H4+HO2     0.1000E+13      0.0000  0.2980E+04
 C4H5+H<=>C4H4+H2     0.1000E+15      0.0000  0.0000E+00
 C4H5+OH<=>C4H4+H2O     0.2000E+08      2.0000  0.9991E+03
 C4H5+C2H<=>2C3H3     0.4000E+13      0.0000  0.0000E+00
 C3H3+C2H3<=>C5H5+H     0.9600E+41     -7.8000  0.2863E+05
 C3H3+C2H2<=>C5H5     0.2400E+12      0.0000  0.9995E+04
 C5H5+O<=>C4H5+CO     0.1000E+14      0.0000  0.0000E+00
 C5H5+OH<=>CH2O+2C2H2     0.2000E+13      0.0000  0.0000E+00
 C6H5O<=>C5H5+CO     0.7400E+12      0.0000  0.4391E+05
 2C3H3<=>A1     0.1000E+37     -7.1800  0.8413E+04
 2C3H3<=>A1-+H     0.3000E+36     -7.1800  0.8413E+04
 C4H3+C2H3<=>A1     0.3000E+14      0.0000  0.0000E+00
 C4H3+C2H3<=>A1-+H     0.6000E+13      0.0000  0.0000E+00
 C2H3+C4H4<=>A1+H     0.1900E+13      0.0000  0.2484E+04
 C4H3+C2H2<=>A1-     0.5000E+14      0.0000  0.1480E+05
 C4H4+C2H2<=>A1-+H     0.1000E+10      0.0000  0.2980E+05
 C4H5+C2H2<=>A1+H     0.1600E+16     -1.3300  0.5365E+04
 C4H5+C2H3<=>A1+H2     0.1800E-12      7.0700  -.3577E+04
 C4H5+C2H<=>A1     0.1000E+14      0.0000  0.0000E+00
 C4H5+C2H<=>A1-+H     0.6000E+13      0.0000  0.0000E+00
 A1<=>A1-+H     0.9000E+15      0.0000  0.1074E+06
 A1<=>C4H4+C2H2     0.9000E+15      0.0000  0.1074E+06
 A1+O2<=>A1-+HO2     0.6000E+14      0.0000  0.6259E+05
 A1+O<=>A1-+OH     0.2000E+14      0.0000  0.1470E+05
 A1+O<=>C6H5O+H     0.2200E+14      0.0000  0.4530E+04
 A1+H<=>A1-+H2     0.2510E+15      0.0000  0.1602E+05
 A1+OH<=>A1-+H2O     0.1450E+14      0.0000  0.4491E+04
 A1+C2H<=>A1-+C2H2     0.2000E+14      0.0000  0.0000E+00
 A1-+O<=>C5H5+CO     0.1000E+15      0.0000  0.0000E+00
 A1-+OH<=>C6H5O+H     0.5000E+14      0.0000  0.0000E+00
 C4H5+C4H2<=>A1C2H+H     0.3160E+12      0.0000  0.1788E+04
 A1C2H-+H(+M)<=>A1C2H(+M)     0.1000E+15      0.0000  0.0000E+00
 LOW/0.6600E+76  -.1630E+02  0.1391E+05/
 TROE/0.1000E+01  0.1000E+00  0.5849E+03  0.6113E+04/
H2/ 2.000/      H2O/ 6.000/     CO/ 1.500/                                                                                      
 C4H3+C4H2<=>A1C2H-     0.9600E+71    -17.7700  0.3112E+05
 A1-+C4H2<=>A1C2H+C2H     0.2000E+14      0.0000  0.2186E+05
 A1-+C2H3<=>A1C2H+H2     0.7900E+13      0.0000  0.6358E+04
 A1-+C4H4<=>A1C2H+C2H3     0.3200E+12      0.0000  0.1352E+04
 A1+C2H<=>A1C2H+H     0.1000E+13      0.0000  0.0000E+00
 A1-+C2H<=>A1C2H     0.5240E+15     -0.5000  0.5961E+03
 A1C2H+O<=>A1C2H-+OH     0.1100E+14      0.0000  0.8147E+04
 A1C2H+O<=>C6H5O+C2H     0.2200E+14      0.0000  0.4491E+04
 A1C2H+H<=>A1C2H-+H2     0.2700E+14      0.0000  0.9701E+04
 A1C2H+H<=>A1-+C2H2     0.2000E+15      0.0000  0.9701E+04
 A1C2H+OH<=>A1C2H-+H2O     0.2100E+14      0.0000  0.4570E+04
 A1C2H+OH<=>A1-+CH2CO     0.2180E-03      4.5000  -.9935E+03
 A1C2H+C2H<=>A1C2H-+C2H2     0.2000E+14      0.0000  0.0000E+00
 2C4H4<=>A1C2H3     0.1800E+21     -1.9000  0.4020E+05
 C4H5+C4H4<=>A1C2H3+H     0.3160E+12      0.0000  0.5961E+03
 A1+C2H3<=>A1C2H3+H     0.7900E+12      0.0000  0.6358E+04
 A1-+C2H3<=>A1C2H3     0.1060E+27     -4.0000  0.5266E+04
 A1-+C2H4<=>A1C2H3+H     0.2510E+13      0.0000  0.6150E+04
 A1C2H3+O<=>A1-+CH2CHO     0.3000E+09      1.4500  0.8942E+03
 A1C2H3+O<=>A1-+CH3+CO     0.1920E+08      1.8300  0.2186E+03
 C4H5+A1=>A2+H2+H     0.5000E+12      0.0000  0.2987E+04
 2C5H5<=>A2+2H     0.4300E+14      0.0000  0.9713E+04
 2C5H5<=>A2+H2     0.4300E+37     -6.3000  0.4537E+05
 A1-+C4H3<=>A2     0.3180E+24     -3.2000  0.4232E+04
 A1-+C4H3<=>A2-+H     0.2000E-09      7.1000  0.1562E+04
 A1-+C4H4<=>A2+H     0.3300E+34     -5.7000  0.2533E+05
 A1C2H-+C2H2<=>A2-     0.4000E+14      0.0000  0.1013E+05
 A2+O<=>CH2CO+A1C2H     0.2200E+14      0.0000  0.4501E+04
 A2+O<=>A2-+OH     0.2000E+14      0.0000  0.1470E+05
 A2+H<=>A2-+H2     0.2500E+15      0.0000  0.1590E+05
 A2+OH<=>A2-+H2O     0.2100E+14      0.0000  0.4570E+04
 A2+OH=>A1C2H+CH2CO+H     0.1300E+14      0.0000  0.1053E+05
 A2-+H<=>A2     0.7800E+14      0.0000  0.0000E+00
 A1C2H-+C4H4<=>A2R5+H     0.1600E+17     -1.3300  0.6557E+04
 A2-+C2H2<=>A2R5+H     0.1900E+32     -5.2600  0.2086E+05
 A2R5<=>A1C2H+C4H2     0.2000E+17      0.0000  0.1152E+06
 A2R5+OH<=>A2-+CH2CO     0.1000E+14      0.0000  0.9935E+04
 C4H2+A2R5=>A4     0.2413E+03      2.2313  -.1131E+04
 A1C2H+A1C2H-<=>A4+H     0.1100E+25     -2.9200  0.1592E+05
 A2+A1-<=>A4+H+H2     0.1000E+12      0.0000  0.4968E+04
 A2-+A1<=>A4+H+H2     0.1000E+13      0.0000  0.4968E+04
 A2-+A1-=>A4+H2     0.4300E+38     -6.3000  0.4477E+05
 A1C2H+A1-<=>A3+H     0.1100E+24     -2.9200  0.1592E+05
 A1C2H-+A1<=>A3+H     0.1100E+24     -2.9200  0.1592E+05
 A2-+C4H4<=>A3+H     0.3300E+34     -5.7000  0.2533E+05
 A2-+C4H2<=>A3-     0.3300E+34     -5.7000  0.2533E+05
 A2R5+C2H2=>A3     0.2765E+05      2.4500  0.2908E+05
 A2+C4H2=>A3     0.2765E+05      2.4500  0.2908E+05
 A3+O<=>A3-+OH     0.2000E+14      0.0000  0.1470E+05
 A3+H<=>A3-+H2     0.2500E+15      0.0000  0.1590E+05
 A3+OH<=>A3-+H2O     0.1700E+13      1.4200  0.1496E+04
 A3-+O2=>CO+HCO+A2R5     0.2000E+13      0.0000  0.7352E+04
 A3-+H<=>A3     0.1000E+15      0.0000  0.0000E+00
 A3-+C2H2<=>A4+H     0.6600E+25     -3.3600  0.1768E+05
 A4+OH<=>A3-+CH2CO     0.2000E+14      0.0000  0.4173E+05
END

