THERMO ALL
   200.000  1000.000  5000.000
!SUBMITTED TO FUEL
!100 SPECIES AND 432 REACTIONS
THERMO ALL
  300.000  1000.000  5000.000
C12H26            -THERMH  26C  12          G     300.0    5000.0  1391.0      1
   3.85095037E1  5.63550048E-2   -1.914932E-5  2.96024862E-9 -1.7124415E-13    2
  -5.48843465E4  -1.72670922E2  -2.62181594E0  1.47237711E-1 -9.43970271E-5    3
  3.07441268E-8 -4.0360223E-12  -4.00654253E4   5.00994626E1                   4
O2                121386O   2               G     300.0    5000.0  1000.0      1
     3.697578E0    6.135197E-4   -1.258842E-7   1.775281E-11  -1.136435E-15    2
     -1.23393E3     3.189166E0     3.212936E0    1.127486E-3    -5.75615E-7    3
    1.313877E-9  -8.768554E-13    -1.005249E3     6.034738E0                   4
N2                121286N   2               G     300.0    5000.0  1000.0      1
      2.92664E0    1.487977E-3   -5.684761E-7   1.009704E-10  -6.753351E-15    2
    -9.227977E2     5.980528E0     3.298677E0     1.40824E-3   -3.963222E-6    3
    5.641515E-9  -2.444855E-12      -1.0209E3     3.950372E0                   4
CO2               121286O   2C   1          G     300.0    5000.0  1000.0      1
     4.453623E0    3.140169E-3   -1.278411E-6   2.393997E-10  -1.669033E-14    2
    -4.896696E4   -9.553959E-1     2.275725E0    9.922072E-3   -1.040911E-5    3
    6.866687E-9   -2.11728E-12    -4.837314E4     1.018849E1                   4
H2O               -20387H   2O   1          G     300.0    5000.0  1000.0      1
     2.672146E0    3.056293E-3    -8.73026E-7   1.200996E-10  -6.391618E-15    2
    -2.989921E4     6.862817E0     3.386842E0    3.474982E-3   -6.354696E-6    3
    6.968581E-9  -2.506588E-12    -3.020811E4     2.590233E0                   4
CO                121286O   1C   1          G     300.0    5000.0  1000.0      1
     3.025078E0    1.442689E-3   -5.630828E-7   1.018581E-10  -6.910952E-15    2
    -1.426835E4     6.108218E0     3.262452E0    1.511941E-3   -3.881755E-6    3
    5.581944E-9  -2.474951E-12    -1.431054E4     4.848897E0                   4
H2                121286H   2               G     300.0    5000.0  1000.0      1
     2.991423E0    7.000644E-4   -5.633829E-8  -9.231578E-12   1.582752E-15    2
     -8.35034E2     -1.35511E0     3.298124E0    8.249442E-4   -8.143015E-7    3
  -9.475434E-11   4.134872E-13    -1.012521E3    -3.294094E0                   4
OH                -THERMH   1O   1          G     300.0    5000.0  1357.0      1
   2.62599754E0  1.31992406E-3  -3.5972467E-7   4.256308E-11-1.82048016E-15    2
   4.12085374E3   7.10667307E0   3.43586219E0  2.02235804E-4 -1.13546412E-7    3
 2.42445149E-10-7.43651031E-14   3.74321252E3   2.45014127E0                   4
H2O2              120186H   2O   2          G     300.0    5000.0  1000.0      1
     4.573167E0    4.336136E-3   -1.474689E-6   2.348904E-10  -1.431654E-14    2
    -1.800696E4     5.01137E-1     3.388754E0    6.569226E-3   -1.485013E-7    3
   -4.625806E-9   2.471515E-12    -1.766315E4     6.785363E0                   4
HO2               -THERMH   1O   2          G     300.0    5000.0  1390.0      1
   4.10547423E0  2.38452835E-3 -8.06347989E-7 1.24191723E-10-7.16400108E-15    2
   3.98127689E2   3.12515836E0   3.18310656E0   3.6676795E-3 -9.32385122E-7    3
-3.25852919E-10 1.51139912E-13   8.09181013E2   8.39371099E0                   4
H                 120186H   1               G     300.0    5000.0  1000.0      1
          2.5E0          0.0E0          0.0E0          0.0E0          0.0E0    2
     2.547163E4   -4.601176E-1          2.5E0          0.0E0          0.0E0    3
          0.0E0          0.0E0     2.547163E4   -4.601176E-1                   4
O                 120186O   1               G     300.0    5000.0  1000.0      1
      2.54206E0   -2.755062E-5   -3.102803E-9   4.551067E-12  -4.368052E-16    2
      2.92308E4     4.920308E0     2.946429E0   -1.638166E-3    2.421032E-6    3
   -1.602843E-9   3.890696E-13     2.914764E4     2.963995E0                   4
CH3O              121686H   3O   1C   1     G     300.0    3000.0  1000.0      1
       3.7708E0    7.871497E-3   -2.656384E-6   3.944431E-10  -2.112616E-14    2
     1.278325E2     2.929575E0     2.106204E0    7.216595E-3    5.338472E-6    3
   -7.377636E-9   2.075611E-12     9.786011E2     1.315218E1                   4
CH2O              121286H   2O   1C   1     G     300.0    5000.0  1000.0      1
     2.995606E0    6.681321E-3   -2.628955E-6   4.737153E-10  -3.212517E-14    2
    -1.532037E4     6.912572E0     1.652731E0    1.263144E-2   -1.888168E-5    3
    2.050031E-8  -8.413237E-12     -1.48654E4     1.378482E1                   4
HCO               121286H   1O   1C   1     G     300.0    5000.0  1000.0      1
     3.557271E0    3.345573E-3   -1.335006E-6   2.470573E-10  -1.713851E-14    2
     3.916324E3     5.552299E0      2.89833E0    6.199147E-3   -9.623084E-6    3
    1.089825E-8  -4.574885E-12     4.159922E3     8.983614E0                   4
CH2               120186H   2C   1          G     250.0    4000.0  1000.0      1
     3.636408E0    1.933057E-3   -1.687016E-7  -1.009899E-10   1.808256E-14    2
     4.534134E4     2.156561E0     3.762237E0    1.159819E-3    2.489585E-7    3
   8.800836E-10  -7.332435E-13     4.536791E4     1.712578E0                   4
CH3               121286H   3C   1          G     300.0    5000.0  1000.0      1
     2.844052E0    6.137974E-3   -2.230345E-6   3.785161E-10  -2.452159E-14    2
     1.643781E4     5.452697E0     2.430443E0     1.11241E-2    -1.68022E-5    3
    1.621829E-8  -5.864953E-12     1.642378E4     6.789794E0                   4
CH4               121286H   4C   1          G     300.0    5000.0  1000.0      1
     1.683479E0    1.023724E-2   -3.875129E-6   6.785585E-10  -4.503423E-14    2
    -1.008079E4     9.623395E0    7.787415E-1    1.747668E-2   -2.783409E-5    3
    3.049708E-8  -1.223931E-11    -9.825229E3     1.372219E1                   4
C2H2              121386H   2C   2          G     300.0    5000.0  1000.0      1
      4.43677E0    5.376039E-3   -1.912817E-6   3.286379E-10   -2.15671E-14    2
     2.566766E4    -2.800338E0     2.013562E0    1.519045E-2   -1.616319E-5    3
    9.078992E-9  -1.912746E-12     2.612444E4     8.805378E0                   4
C2H3              -12787H   3C   2          G     300.0    5000.0  1000.0      1
     5.933468E0    4.017746E-3    -3.96674E-7  -1.441267E-10   2.378644E-14    2
     3.185435E4    -8.530313E0     2.459276E0    7.371476E-3    2.109873E-6    3
   -1.321642E-9  -1.184784E-12     3.335225E4      1.15562E1                   4
C2H4              121286H   4C   2          G     300.0    5000.0  1000.0      1
     3.528419E0    1.148518E-2   -4.418385E-6   7.844601E-10  -5.266848E-14    2
     4.428289E3     2.230389E0    -8.61488E-1    2.796163E-2   -3.388677E-5    3
    2.785152E-8  -9.737879E-12     5.573046E3     2.421149E1                   4
C2H5              -12387H   5C   2          G     300.0    5000.0  1000.0      1
      7.19048E0    6.484077E-3   -6.428065E-7  -2.347879E-10   3.880877E-14    2
     1.067455E4    -1.478089E1     2.690702E0    8.719133E-3    4.419839E-6    3
   9.338703E-10  -3.927773E-12      1.28704E4      1.21382E1                   4
C2H6              -THERMH   6C   2          G     300.0    5000.0  1384.0      1
   6.10683385E0  1.29236361E-2 -4.42527196E-6 6.87391726E-10-3.98901732E-14    2
  -1.37500014E4   -1.3008125E1 -2.52854344E-2  2.40764754E-2 -1.11893472E-5    3
  2.08340901E-9-5.29868616E-14  -1.12345534E4    2.1164875E1                   4
CH3O2             -THERMH   3O   2C   1     G     300.0    5000.0  1385.0      1
   5.95787891E0  7.90728626E-3 -2.68246234E-6 4.13891337E-10 -2.3900733E-14    2
  -1.53574838E3  -4.71963886E0   4.26146906E0  1.00873599E-2 -3.21506184E-6    3
 2.09409267E-10 4.18339103E-14  -6.84394259E2    5.1633032E0                   4
CH2CO             121686H   2O   1C   2     G     300.0    5000.0  1000.0      1
     6.038817E0     5.80484E-3   -1.920954E-6   2.794485E-10  -1.458868E-14    2
    -8.583402E3    -7.657581E0     2.974971E0    1.211871E-2   -2.345046E-6    3
   -6.466685E-9   3.905649E-12    -7.632637E3     8.673553E0                   4
CH2CHO            110393H   3O   1C   2     G     300.0    5000.0  1000.0      1
      5.97567E0    8.130591E-3   -2.743624E-6   4.070304E-10  -2.176017E-14    2
     4.903218E2    -5.045251E0     3.409062E0    1.073857E-2    1.891492E-6    3
   -7.158583E-9   2.867385E-12     1.521477E3      9.55829E0                   4
CH3CO             120186H   3O   1C   2     G     300.0    5000.0  1000.0      1
     5.612279E0    8.449886E-3   -2.854147E-6   4.238376E-10  -2.268404E-14    2
    -5.187863E3    -3.274949E0     3.125278E0     9.77822E-3    4.521448E-6    3
   -9.009462E-9   3.193718E-12    -4.108508E3     1.122885E1                   4
CH3CHO            120186H   4O   1C   2     G     300.0    5000.0  1000.0      1
      5.86865E0    1.079424E-2    -3.64553E-6   5.412912E-10  -2.896844E-14    2
    -2.264569E4    -6.012946E0     2.505695E0    1.336991E-2    4.671953E-6    3
    -1.12814E-8   4.263566E-12    -2.124589E4     1.335089E1                   4
C3H5              -THERMH   5C   3          G     300.0    5000.0  1397.0      1
   8.45883958E0  1.12695483E-2 -3.83792864E-6 5.94059119E-10 -3.4391803E-14    2
   1.63576092E4   -2.2580945E1 -5.29131958E-1    3.345591E-2 -2.53401027E-5    3
  1.02865754E-8 -1.7325834E-12   1.93834226E4   2.53067131E1                   4
C3H6              -THERMH   6C   3          G     300.0    5000.0  1388.0      1
   8.01595958E0  1.37023634E-2 -4.66249733E-6 7.21254402E-10-4.17370126E-14    2
  -1.87821271E3  -2.00160668E1  3.94615444E-1  2.89107662E-2 -1.54886808E-5    3
  3.88814209E-9-3.37890352E-13   1.06688164E3   2.19003736E1                   4
C3H7              120186H   7C   3          G     300.0    5000.0  1000.0      1
     7.978291E0    1.576113E-2   -5.173243E-6   7.443892E-10  -3.824978E-14    2
     7.579402E3    -1.935611E1     1.922537E0    2.478927E-2    1.810249E-6    3
   -1.783266E-8   8.582996E-12     9.713281E3     1.399271E1                   4
C4H7              -THERMH   7C   4          G     300.0    5000.0  1392.0      1
   1.12103578E1  1.60483196E-2 -5.46502292E-6 8.45941053E-10-4.89772739E-14    2
   1.09041937E4  -3.55593015E1 -3.50508352E-1  4.26511243E-2 -2.90979373E-5    3
  1.05403914E-8-1.60059854E-12   1.49933591E4   2.67295696E1                   4
C4H8              -THERMH   8C   4          G     300.0    5000.0  1392.0      1
   1.13508668E1  1.80617877E-2 -6.16093029E-6 9.54652959E-10-5.53089641E-14    2
  -5.97871038E3  -3.64369438E1 -8.31372089E-1  4.52580978E-2 -2.93658559E-5    3
  1.00220436E-8 -1.4319168E-12  -1.57875035E3   2.95084236E1                   4
C4H9              -THERMH   9C   4          G     300.0    5000.0  1395.0      1
   1.21510082E1  1.94310717E-2  -6.6157795E-6  1.02375136E-9-5.92529707E-14    2
   3.17231942E3  -3.93425822E1 -4.37779725E-1  4.78972364E-2 -3.14023159E-5    3
  1.09786472E-8-1.62010664E-12   7.68945248E3   2.86852732E1                   4
C4H9CO            -THERMH   9O   1C   5     G     300.0    5000.0  1382.0      1
   1.61782939E1   2.0799192E-2 -7.11787892E-6  1.10559975E-9-6.41697187E-14    2
  -1.66537752E4  -5.58943579E1   2.43530238E0  4.93682376E-2 -2.89883082E-5    3
  8.42863812E-9-9.68287172E-13  -1.14675541E4   1.92695879E1                   4
C4H9CHO           -THERMH  10O   1C   5     G     300.0    5000.0  1381.0      1
   1.67965163E1  2.25684519E-2 -7.67631588E-6  1.18769369E-9-6.87545554E-14    2
   -3.5682608E4  -6.09063312E1   1.59663472E0  5.43541416E-2 -3.21020651E-5    3
  9.35773559E-9-1.06688932E-12  -2.99841025E4   2.21281498E1                   4
C4H9COCH2         -THERMH  11O   1C   6     G     300.0    5000.0  1387.0      1
   1.98575871E1   2.5240637E-2 -8.72522623E-6  1.36422047E-9-7.95374883E-14    2
  -2.20531958E4  -7.71140999E1  6.57240675E-1  6.91820222E-2 -4.79956182E-5    3
  1.78114857E-8-2.80456388E-12  -1.51806661E4   2.65180216E1                   4
NC7KET23          -THERMH  14O   3C   7     G     300.0    5000.0  1394.0      1
    2.9406889E1  3.11132474E-2  -1.0747575E-5  1.67981822E-9-9.79195344E-14    2
  -6.04319021E4  -1.21313991E2  1.97237667E-1  1.01003617E-1 -7.54631627E-5    3
  2.92849376E-8-4.66295964E-12  -5.04393242E4   3.49969216E1                   4
C7H15-2                 H  15C   7          G     300.0    5000.0  1382.0      1
   2.16368842E1  3.23324804E-2 -1.09273807E-5   1.6835706E-9-9.71774091E-14    2
  -1.05873616E4  -8.52209653E1 -3.79155767E-2   7.5672657E-2 -4.07473634E-5    3
  9.32678943E-9-4.92360745E-13  -2.35605303E3   3.37321506E1                   4
C7H15O2           -THERMH  15O   2C   7     G     300.0    5000.0  1392.0      1
   2.52622017E1  3.46652053E-2 -1.18812593E-5  1.84687322E-9-1.07234165E-13    2
  -3.05051074E4  -1.00675588E2   1.51378168E0  8.85572745E-2 -5.92457147E-5    3
  2.11801862E-8-3.20741722E-12    -2.198184E4    2.7625537E1                   4
C7H14OOH          8-THRMH  15O   2C   7     G     300.0    5000.0  1389.0      1
   2.73843966E1  3.17800796E-2 -1.07557689E-5  1.65881427E-9-9.58200506E-14    2
  -2.49404488E4  -1.09739277E2   1.62083964E0  8.83636215E-2 -5.64527235E-5    3
  1.76325999E-8-2.10369342E-12  -1.57072842E4   2.97815441E1                   4
C7H15O2H          -----2H  16O   2C   7     G     300.0    5000.0  1393.0      1
   2.77098165E1   3.4848788E-2 -1.19777002E-5   1.8655634E-9-1.08475524E-13    2
  -4.86189131E4  -1.14905489E2  6.29165042E-1  9.70053636E-2 -6.68336695E-5    3
  2.41186253E-8-3.61669837E-12  -3.90427262E4   3.10277331E1                   4
O2C7H14OOH        -98-TMH  15O   4C   7     G     300.0    5000.0  1392.0      1
   3.27436761E1  3.30060143E-2 -1.14146253E-5  1.78556283E-9-1.04147126E-13    2
  -4.58332974E4  -1.35817581E2   3.09603698E0  9.93182239E-2 -6.69045928E-5    3
   2.2419127E-8-2.97843662E-12  -3.52824732E4   2.43873873E1                   4
CH3OCO                  H   3O   2C   2     G     300.0    5000.0  1601.0      1
   9.73659803E0  7.42432713E-3 -2.65641779E-6 4.25031143E-10-2.51824924E-14    2
   -2.3551245E4  -2.37360013E1   4.16215406E0  1.38037511E-2 -3.08486109E-7    3
 -4.56430814E-9 1.46909632E-12   -2.0962703E4   8.54235619E0                   4
CH3OH             121686H   4O   1C   1     G     300.0    5000.0  1000.0      1
     4.029061E0    9.376593E-3   -3.050254E-6   4.358793E-10  -2.224723E-14    2
    -2.615791E4     2.378196E0     2.660115E0    7.341508E-3    7.170051E-6    3
   -8.793194E-9    2.39057E-12    -2.535348E4     1.123263E1                   4
CH2OH             120186H   3O   1C   1     G     250.0    4000.0  1000.0      1
      6.32752E0    3.608271E-3   -3.201547E-7   -1.93875E-10   3.509705E-14    2
    -4.474509E3    -8.329366E0     2.862628E0    1.001527E-2   -5.285436E-7    3
    -5.13854E-9   2.246041E-12    -3.349679E3     1.039794E1                   4
C3H7CHO           -THERMH   8O   1C   4     G     300.0    5000.0  1378.0      1
   1.35988068E1  1.81652474E-2 -6.17844458E-6 9.55980208E-10-5.53442958E-14    2
  -3.15845348E4  -4.51790228E1   1.87415959E0  4.19240315E-2 -2.35148779E-5    3
  6.26913673E-9-6.09443908E-13  -2.71032194E4   1.91568574E1                   4
C6H13CO           -THERMH  13O   1C   7     G     300.0    5000.0  1389.0      1
   2.32412991E1  2.94013946E-2 -1.01210871E-5  1.57812201E-9-9.18349976E-14    2
  -2.67973204E4  -9.47460288E1  7.18129174E-1  7.97814021E-2 -5.30878535E-5    3
  1.83105964E-8-2.61673962E-12  -1.86909366E4   2.71126725E1                   4
C4H4              -----0H   4C   4          G     300.0    5000.0  1000.0      1
    6.3549404E0   1.5122039E-2  -5.7226539E-6  9.8267505E-10 -6.3638168E-14    2
    3.3896547E4   -7.4671631E0    1.5192467E0   2.9964752E-2  -1.9455949E-5    3
    3.983732E-9  6.4256348E-13    3.4997141E4    1.6783657E1                   4
C4H3                    H   3C   4          G     300.0    5000.0  1000.0      1
    8.1544113E0     8.45333E-3  -2.2554141E-6  3.0141167E-10 -1.6387794E-14    2
    6.2419848E4   -1.5504528E1     1.355612E0   3.2820366E-2  -3.5109366E-5    3
   2.0636321E-8 -5.0605436E-12    6.3911547E4    1.8002588E1                   4
HCCO              -32387H   1O   1C   2     G     300.0    4000.0  1000.0      1
     6.758073E0      2.0004E-3   -2.027607E-7  -1.041132E-10   1.965165E-14    2
     1.901513E4    -9.071262E0     5.047965E0    4.453478E-3    2.268283E-7    3
   -1.482095E-9   2.250742E-13     1.965892E4    4.818439E-1                   4
C6H11                   H  11C   6          G     300.0    5000.0  1388.0      1
   1.73781063E1  2.52715626E-2 -8.74710351E-6  1.36884407E-9-7.98569285E-14    2
   1.33730775E3  -6.77269441E1  -1.78981302E0  6.71660911E-2 -4.34180588E-5    3
  1.43931014E-8-1.96953043E-12    8.3523047E3   3.63570478E1                   4
C2H3CHO           -THERMH   4O   1C   3     G     300.0    5000.0  1393.0      1
   1.04184959E1  9.48963321E-3 -3.29310529E-6 5.16279203E-10-3.01587291E-14    2
  -1.49630281E4  -3.07235061E1  2.92355162E-1  3.54321417E-2 -2.94936324E-5    3
  1.28100124E-8-2.26144108E-12  -1.16521584E4    2.2887828E1                   4
C3H6CHO           -THERMH   7O   1C   4     G     300.0    5000.0  1379.0      1
   1.30322954E1  1.62418373E-2 -5.54388124E-6 8.59723685E-10-4.98459726E-14    2
  -6.45915975E3  -3.92399021E1   2.67672303E0  3.73064128E-2 -2.11281405E-5    3
  5.80472681E-9-6.09688236E-13  -2.49714183E3   1.75750933E1                   4
C2H5CHO           -THERMH   6O   1C   3     G     300.0    5000.0  1378.0      1
   1.02427695E1  1.39641989E-2 -4.76248001E-6 7.38105706E-10-4.27759503E-14    2
  -2.74143135E4  -2.85346843E1   2.16308444E0  2.95501264E-2 -1.52446252E-5    3
  3.49503947E-9-2.38896627E-13  -2.42260137E4   1.61153348E1                   4
C4H7O             -THERMH   7O   1C   4     G     300.0    5000.0  1380.0      1
   1.30026331E1  1.63104877E-2 -5.57642899E-6 8.65670629E-10-5.02255667E-14    2
  -1.25523385E4  -4.02608515E1   2.67256826E0  3.71198825E-2 -2.06862859E-5    3
  5.48873888E-9-5.35864183E-13  -8.58050888E3    1.6484895E1                   4
C6H13             -THERMH  13C   6          G     300.0    5000.0  1380.0      1
   1.83687363E1   2.8026811E-2 -9.47032396E-6  1.45888527E-9-8.42002461E-14    2
  -6.46093974E3  -6.90934018E1  2.29560154E-1  6.33327323E-2 -3.24135431E-5    3
  6.46387687E-9-9.61420424E-14   5.25639155E2   3.08006138E1                   4
C6H13O            -THERMH  13O   1C   6     G     300.0    5000.0  1394.0      1
   2.06212979E1  2.93505832E-2  -1.0067552E-5  1.56583919E-9-9.09553875E-14    2
  -2.47150564E4  -8.06250183E1  -1.49301672E0  8.07750602E-2 -5.64119218E-5    3
   2.0902168E-8 -3.2405361E-12  -1.69441107E4   3.83378935E1                   4
C6H13O2           -THERMH  13O   2C   6     G     300.0    5000.0  1393.0      1
   2.21058203E1  3.01631951E-2 -1.03356754E-5  1.60632978E-9-9.32550072E-14    2
  -2.64125536E4  -8.58473243E1   1.62964892E0  7.68548886E-2 -5.17292235E-5    3
  1.87119014E-8-2.87653697E-12  -1.90768103E4   2.47112107E1                   4
C6H12OOH          8-THRMH  13O   2C   6     G     300.0    5000.0  1388.0      1
   2.42454253E1  2.72458345E-2 -9.19656773E-6   1.4159862E-9-8.17044423E-14    2
  -2.08564674E4  -9.50086804E1   1.85329157E0  7.61266828E-2 -4.81366962E-5    3
  1.46689377E-8-1.66417799E-12  -1.28193912E4   2.63309672E1                   4
C6H12OOHO2        -98-TMH  13O   4C   6     G     300.0    5000.0  1393.0      1
   2.95271681E1  2.85203824E-2 -9.86682495E-6  1.54383896E-9-9.00649892E-14    2
  -4.16962204E4  -1.19907035E2     3.231797E0   8.7695688E-2 -5.97556683E-5    3
   2.0260791E-8-2.72506254E-12  -3.23842521E4   2.20391463E1                   4
C6KET24           -THERMH  12O   3C   6     G     300.0    5000.0  1389.0      1
   2.50386062E1  2.75871713E-2 -9.52546534E-6   1.4882849E-9-8.67306185E-14    2
  -5.77837692E4  -9.80961279E1   2.88191806E0  7.81321733E-2 -5.39698643E-5    3
  1.95324043E-8-2.94996499E-12  -4.98963867E4   2.14500025E1                   4
C6H12O            -THERMH  12O   1C   6     G     300.0    5000.0  1388.0      1
   1.99501923E1  2.88253331E-2  -1.0021793E-5  1.57295064E-9-9.19508743E-14    2
   -3.1567431E4  -8.24846912E1  -3.75894138E0  8.46044396E-2 -6.18101303E-5    3
  2.42424607E-8-4.01441141E-12  -2.32216305E4   4.49636341E1                   4
CH3COCH2          -THERMH   5O   1C   3     G     300.0    5000.0  1391.0      1
   1.02303975E1  1.16494161E-2 -4.01005537E-6 6.25205246E-10-3.63784362E-14    2
  -8.44380462E3   -2.7919722E1   1.80339187E0  3.01407085E-2 -1.93505552E-5    3
  6.38199034E-9 -8.6610318E-13  -5.37233261E3   1.78046408E1                   4
C2H5CO            -THERMH   5O   1C   3     G     300.0    5000.0  1373.0      1
   9.87881997E0  1.17515676E-2 -4.00614923E-6 6.20850617E-10-3.59835225E-14    2
  -8.47292283E3  -2.49235196E1   2.93313946E0  2.47427911E-2 -1.21222003E-5    3
  2.34701048E-9-5.26843338E-14  -5.69663063E3   1.35958355E1                   4
C5H10                   H  10C   5          G     300.0    5000.0  1385.0      1
   1.39945443E1  2.29446582E-2 -7.82594153E-6   1.2126023E-9-7.02518457E-14    2
  -1.31576943E4  -5.04083848E1   1.20274147E0  4.78872107E-2 -2.48144766E-5    3
  5.73514355E-9-3.91266685E-13  -8.15212335E3   2.01592579E1                   4
C5H9              -THERMH   9C   5          G     300.0    5000.0  1392.0      1
   1.41860454E1  2.07128899E-2 -7.06960617E-6  1.09607133E-9-6.35322208E-14    2
   7.00496135E3  -5.14501773E1   -1.3801395E0  5.57608487E-2 -3.70143928E-5    3
  1.26883901E-8-1.78538835E-12   1.25589824E4   3.26441304E1                   4
C6H12                   H  12C   6          G     300.0    5000.0  1390.0      1
   1.73616148E1  2.71634902E-2 -9.25249439E-6  1.43247725E-9-8.29472521E-14    2
  -1.55509547E4  -6.61857343E1  -8.3781052E-1  6.64334712E-2 -4.08801772E-5    3
  1.27558015E-8-1.60665165E-12  -8.86347329E3     3.277852E1                   4
C6H112-4          -THERMH  11C   6          G     300.0    5000.0  1389.0      1
   1.69675593E1  2.54635235E-2 -8.68644122E-6    1.346297E-9-7.80191162E-14    2
   1.54157079E3  -6.52971106E1  -1.16992307E0  6.48326433E-2 -4.05262795E-5    3
  1.27524726E-8-1.60498435E-12   8.16316429E3   3.32148832E1                   4
C6H11O2-4         -THERMH  11O   1C   6     G     300.0    5000.0  1388.0      1
   2.17536453E1  2.29477789E-2 -7.71427788E-6  1.18540388E-9-6.83332601E-14    2
  -1.06296518E4  -8.69112396E1  -1.97396384E0  7.78641252E-2 -5.51856115E-5    3
  1.93459318E-8-2.65553891E-12  -2.46698943E3   4.04899267E1                   4
C6H12OH           -THERMH  13O   1C   6     G     300.0    5000.0  1390.0      1
   2.05388853E1  2.82512269E-2 -9.53280388E-6  1.46688381E-9-8.45889133E-14    2
  -2.73356962E4   -7.6527846E1  2.03282633E-1  7.28935457E-2  -4.5920036E-5    3
   1.4511501E-8-1.81146964E-12  -2.00036461E4    3.3675165E1                   4
C8H16             -THERMH  16C   8          G     300.0    5000.0  1392.0      1
   2.43540125E1  3.53666462E-2 -1.20208388E-5  1.85855053E-9-1.07522262E-13    2
  -2.24485674E4  -1.00537716E2  -1.89226915E0  9.46066357E-2 -6.27385521E-5    3
  2.15158309E-8-3.02718683E-12  -1.31074559E4   4.11878981E1                   4
C8H15             -THERMH  15C   8          G     300.0    5000.0  1385.0      1
   2.33542716E1  3.34308759E-2 -1.13090513E-5  1.74349916E-9-1.00683122E-13    2
  -7.12870223E1   -9.2146055E1  -1.06767837E0  8.52582925E-2 -5.12151748E-5    3
  1.47537449E-8-1.56139848E-12   8.90562157E3   4.08246085E1                   4
C5H11             T03-97H  11C   5          G    298.15    5000.0  1000.0      1
   1.13324106E1  3.03659897E-2  -1.1393448E-5  1.99539733E-9-1.32825012E-13    2
  -5.95299959E3  -3.13564905E1   3.57867617E0  3.04236365E-2   3.2776827E-5    3
 -5.86453147E-8 2.39315107E-11  -2.60420265E3   1.42591121E1                   4
C5H11O2           -THERMH  11O   2C   5     G     300.0    5000.0  1393.0      1
   1.91109668E1  2.54972629E-2 -8.72816395E-6  1.35560179E-9-7.86632141E-14    2
  -2.23858792E4  -7.05707166E1   1.96899027E0   6.4064483E-2 -4.21700472E-5    3
   1.4761046E-8-2.18348296E-12  -1.62053385E4   2.21485671E1                   4
C5H10OOH          8-THRMH  11O   2C   5     G     300.0    5000.0  1385.0      1
   2.11169318E1  2.26986457E-2 -7.63263375E-6  1.17243697E-9 -6.7548891E-14    2
  -1.67780275E4   -7.8960686E1   2.09502214E0  6.38468779E-2 -3.97543431E-5    3
  1.16640179E-8-1.21585829E-12  -9.93286805E3   2.42166673E1                   4
C10H22            -THERMH  22C  10          G     300.0    5000.0  1391.0      1
   3.19882239E1  4.77244922E-2 -1.62276391E-5  2.50963259E-9-1.45215772E-13    2
   -4.6639284E4  -1.40504121E2  -2.08416969E0  1.22535012E-1 -7.76815739E-5    3
  2.49834877E-8-3.23548038E-12  -3.43021863E4    4.4226014E1                   4
C10H21            -THERMH  21C  10          G     300.0    5000.0  1385.0      1
    3.1444758E1  4.52778532E-2 -1.53145696E-5  2.36072411E-9-1.36311835E-13    2
    -2.297027E4  -1.33634423E2 -9.30536886E-1  1.13137924E-1 -6.64034118E-5    3
  1.83220872E-8-1.77128003E-12  -1.09890165E4    4.2933508E1                   4
C10H21O2          -THERMH  21O   2C  10     G     300.0    5000.0  1391.0      1
   3.52386548E1  4.75793514E-2 -1.63731335E-5  2.55214038E-9-1.48474197E-13    2
  -4.32282603E4  -1.50404303E2   1.01431524E0  1.24157438E-1 -8.21448954E-5    3
  2.85684148E-8-4.17000221E-12  -3.08616979E4   3.48377002E1                   4
C10KET2-1               H  20O   3C  10     G     300.0    5000.0  1393.0      1
   3.85996596E1  4.47463697E-2 -1.54033646E-5  2.40175763E-9-1.39764748E-13    2
  -7.12001532E4   -1.6440302E2  -1.9372279E-1  1.38127143E-1 -1.03141154E-4    3
  4.06829473E-8-6.64937911E-12  -5.79149099E4     4.311235E1                   4
C7H15CHO          -THERMH  16O   1C   8     G     300.0    5000.0  1386.0      1
   2.61609074E1  3.62858837E-2 -1.24097058E-5  1.92662114E-9-1.11780863E-13    2
  -4.79259983E4  -1.06895495E2  9.66850312E-1  9.08063795E-2 -5.67710469E-5    3
  1.81650681E-8-2.38496879E-12  -3.86587355E4   3.00918692E1                   4
C7H15CO           -THERMH  15O   1C   8     G     300.0    5000.0  1386.0      1
   2.57444491E1  3.41545888E-2 -1.16883107E-5  1.81544096E-9 -1.0536444E-13    2
  -2.89638264E4  -1.02988707E2   1.73697916E0  8.60262622E-2 -5.37492409E-5    3
  1.71184327E-8-2.22771849E-12  -2.01298819E4    2.7567468E1                   4
C6H13CHO          -THERMH  14O   1C   7     G     300.0    5000.0  1385.0      1
   2.30172858E1  3.17488129E-2 -1.08471869E-5  1.68296998E-9-9.76031894E-14    2
  -4.38361973E4  -9.14416834E1   1.16727179E0   7.8706403E-2 -4.86434224E-5    3
   1.5302262E-8 -1.9640479E-12  -3.57659062E4   2.74799549E1                   4
C12H25            -THERMH  25C  12          G     300.0    5000.0  1385.0      1
   3.79688268E1  5.38719464E-2 -1.82171263E-5  2.80774503E-9 -1.6210842E-13    2
  -3.12144988E4  -1.65805933E2  -1.36787089E0  1.37355348E-1 -8.24076158E-5    3
  2.36421562E-8-2.47435932E-12  -1.67660539E4   4.83521895E1                   4
C12H25O2          -THERMH  25O   2C  12     G     300.0    5000.0  1391.0      1
   4.15594442E1  5.65861741E-2 -1.94673569E-5  3.03391862E-9-1.76481347E-13    2
  -5.14188102E4   -1.8149246E2  7.19000677E-1  1.47857475E-1 -9.76141389E-5    3
  3.37768226E-8-4.89238474E-12  -3.66625786E4   3.95787186E1                   4
C12KET                  H  24O   3C  12     G     300.0    5000.0  1393.0      1
   4.49391711E1  5.37234437E-2 -1.84844136E-5  2.88118806E-9-1.67623777E-13    2
  -7.93966403E4  -1.95594753E2  -5.4900656E-1  1.62095503E-1 -1.18993817E-4    3
  4.61133228E-8-7.41761827E-12  -6.37068665E4   4.81302194E1                   4
C4H9O2            -THERMH   9O   2C   4     G     300.0    5000.0  1393.0      1
   1.59125079E1   2.1017075E-2 -7.18695542E-6  1.11540718E-9-6.46906625E-14    2
  -1.82703158E4  -5.47955211E1   2.12203459E0  5.22170099E-2 -3.45361525E-5    3
  1.22590593E-8-1.85024171E-12  -1.33059163E4    1.9750235E1                   4
C4H8OOH           -THERMH   9O   2C   4     G     300.0    5000.0  1379.0      1
   1.67765697E1  2.02436108E-2 -7.00755314E-6  1.09668146E-9-6.39812135E-14    2
  -1.01952999E4  -5.57317121E1   4.58873307E0  4.21293468E-2 -1.91956104E-5    3
  2.59922321E-9 2.80120772E-13  -5.24542343E3   1.21592799E1                   4
C4H8OOHO2         98-TRMH   9O   4C   4     G     300.0    5000.0  1395.0      1
   2.11658891E1  2.09636033E-2 -7.20558874E-6  1.12228133E-9-6.52546797E-14    2
   -3.0347938E4  -7.52165802E1   5.01285046E0   5.8301727E-2 -4.05195371E-5    3
  1.48315962E-8 -2.2623346E-12  -2.46570201E4   1.17446314E1                   4
C4KET23           -THERMH   8O   3C   4     G     300.0    5000.0  1387.0      1
   1.99512969E1  1.79558596E-2 -6.31230878E-6 9.98217386E-10-5.86636973E-14    2
  -4.95585495E4  -7.43071328E1  4.50575961E-1  6.48862527E-2 -5.04446464E-5    3
   2.0308522E-8-3.35952497E-12  -4.28779359E4   3.00153676E1                   4
C4H9O             -THERMH   9O   1C   4     G     300.0    5000.0  1395.0      1
   1.43191907E1  2.03755403E-2 -6.99468128E-6  1.08846398E-9-6.32475258E-14    2
  -1.65501937E4  -4.96934457E1  -1.73349511E0  5.93973025E-2 -4.43530387E-5    3
  1.78096538E-8-2.98781742E-12  -1.10605307E4    3.6091034E1                   4
C3H7O             -THERMH   7O   1C   3     G     300.0    5000.0  1396.0      1
   1.11265533E1  1.58407525E-2 -5.42391589E-6 8.42560091E-10-4.88988735E-14    2
  -1.24213331E4  -3.45968831E1 -9.69615596E-1  4.48455154E-2 -3.26479816E-5    3
  1.27420941E-8-2.07979338E-12  -8.25420041E3   3.01697993E1                   4