! FOR N-HEPTANE, REDUCED FROM LLNL V3.1 DETAILED MECH.
! BOTH IGNITION AND FLAME TRANSPORT ARE TARGETED.                                    
! SKELETAL MECH. WITH  126 SPECIES AND    680 STEPS
! YULIN CHEN, JYH-YUAN CHEN. "TOWARDS IMPROVED AUTOMATIC MECHANISM REDUCTION REGARDING IGNITION DELAYS AND FLAME SPEEDS." COMBUSTION AND FLAME
ELEMENTS
 C   H   N   O  
END
SPECIES
H               H2              O               O2              OH              
H2O             N2              HO2             H2O2            CO              
CO2             CH2O            HCO             HOCHO           CH3OH           
CH2OH           CH3O            CH3O2H          CH3O2           CH4             
CH3             CH2             CH2-S           CH              C2H6            
C2H5            C2H4            C2H3            C2H2            CH3CHO          
CH3CO           CH2CHO          CH2CO           HCCO            C2H5OH          
C2H5O           C2H5O2H         C2H5O2          C2H3O1-2        CH3COCH2        
C2H3CHO         C2H3CO          C2H5CHO         C3H8            NC3H7           
C3H6            C3H5-A          C3H5-T          C3H4-P          C3H4-A          
C3H3            C3H5O           C3H6OOH1-3      NC3H7O2         NC3H7O          
C3H6O1-3        CH3CHCO         C4H10           C4H8-1          PC4H9           
C4H71-3         C4H71-4         C4H6            PC4H9O2         C4H7O           
C4H8OOH1-3      C4H8OOH1-3O2    NC4KET13        C2H5COCH2       NC3H7CHO        
NC3H7CO         SC3H5CHO        C5H11-1         C5H10-1         C5H91-4         
NC4H9CHO        NC4H9CO         NC3H7COCH2      C4H7OOH1-4      C4H7O1-4        
C5H9OOH1-4      C5H9O1-4        C4H7CHO1-1      C7H14O1-3       C7H14O2-4       
C7H14O3-5      
C7H16          C7H15-1         C7H15-2         C7H15-3         C7H15-4        
C7H14-1         C7H14-2         C7H14-3         C7H131-3        C7H132-4        
C7H133-5        C7H13O1-3       
C7H13O2-4       C7H15O2-1       C7H15O2-2       C7H15O2-3       C7H15O2-4       
C7H15O2H-2      C7H15O2H-3      C7H15O-2        C7H15O-3        C7H14OOH1-2     
C7H14OOH1-3     C7H14OOH2-3     C7H14OOH2-4     C7H14OOH3-2     C7H14OOH3-5     
C7H14OOH4-2      C7H14OOH1-3O2  C7H14OOH2-3O2   C7H14OOH2-4O2   C7H14OOH3-2O2   
C7H14OOH3-5O2   C7H14OOH4-2O2         NC7KET13        NC7KET23        NC7KET24        
NC7KET32        NC7KET35        NC7KET42       
END
REACTIONS
H+O2<=>O+OH                                    3.5470E+15  -0.406  1.6600E+04 !     1
          REV / 1.0270E+13  -0.015 -1.3300E+02/
O+H2<=>H+OH                                    5.0800E+04   2.670  6.2920E+03 !     2
          REV / 2.6370E+04   2.651  4.8800E+03/
OH+H2<=>H+H2O                                  2.1600E+08   1.510  3.4300E+03 !     3
          REV / 2.2900E+09   1.404  1.8320E+04/
O+H2O<=>2OH                                    2.9700E+06   2.020  1.3400E+04 !     4
          REV / 1.4540E+05   2.107 -2.9040E+03/
H2+M<=>2H+M                                    4.5770E+19  -1.400  1.0440E+05 !     5
 H2/ 2.50/ H2O/12.00/ CO/ 1.90/ CO2/ 3.80/                                      
          REV / 1.1450E+20  -1.676  8.2000E+02/
O2+M<=>2O+M                                    4.4200E+17  -0.634  1.1890E+05 !     6
 H2/ 2.50/ H2O/12.00/ CO/ 1.90/ CO2/ 3.80/ CH4/ 2.00/ C2H6/ 3.00/               
          REV / 6.1650E+15  -0.500  0.0000E+00/
OH+M<=>O+H+M                                   9.7800E+17  -0.743  1.0210E+05 !     7
 H2/ 2.50/ H2O/12.00/ CO/ 1.50/ CO2/ 2.00/ CH4/ 2.00/ C2H6/ 3.00/               
          REV / 4.7140E+18  -1.000  0.0000E+00/
H2O+M<=>H+OH+M                                 1.9070E+23  -1.830  1.1850E+05 !     8
 H2/ 0.73/ H2O/12.00/ CH4/ 2.00/ C2H6/ 3.00/                                    
          REV / 4.5000E+22  -2.000  0.0000E+00/
H+O2(+M)<=>HO2(+M)                             1.4750E+12   0.600  0.0000E+00 !     9
 LOW/  3.4820E+16  -0.411 -1.1150E+03 /                                         
 TROE/ 0.5000     0.1000E-29 0.1000E+31 0.1000E+11 /                            
 H2/ 1.30/ H2O/14.00/ CO/ 1.90/ CO2/ 3.80/ CH4/ 2.00/ C2H6/ 3.00/               
HO2+H<=>H2+O2                                  1.6600E+13   0.000  8.2300E+02 !    10
          REV / 3.1660E+12   0.348  5.5510E+04/
HO2+H<=>2OH                                    7.0790E+13   0.000  2.9500E+02 !    11
          REV / 2.0280E+10   0.720  3.6840E+04/
HO2+O<=>OH+O2                                  3.2500E+13   0.000  0.0000E+00 !    12
          REV / 3.2170E+12   0.329  5.3280E+04/
HO2+OH<=>H2O+O2                                1.9730E+10   0.962 -3.2840E+02 !    13
          REV / 3.9890E+10   1.204  6.9250E+04/
H2O2+O2<=>2HO2                                 1.1360E+16  -0.347  4.9730E+04 !    14
          REV / 1.0300E+14   0.000  1.1040E+04/
DUPLICATE
H2O2+O2<=>2HO2                                 2.1410E+13  -0.347  3.7280E+04 !    15
          REV / 1.9400E+11   0.000 -1.4090E+03/
DUPLICATE
H2O2(+M)<=>2OH(+M)                             2.9510E+14   0.000  4.8430E+04 !    16
 LOW/  1.2020E+17   0.000  4.5500E+04 /                                         
 TROE/ 0.5000     0.1000E-29 0.1000E+31 0.1000E+11 /                            
 H2/ 2.50/ H2O/12.00/ CO/ 1.90/ CO2/ 3.80/ CH4/ 2.00/ C2H6/ 3.00/               
H2O2+H<=>H2O+OH                                2.4100E+13   0.000  3.9700E+03 !    17
          REV / 1.2650E+08   1.310  7.1410E+04/
H2O2+H<=>H2+HO2                                2.1500E+10   1.000  6.0000E+03 !    18
          REV / 3.7160E+07   1.695  2.2000E+04/
H2O2+O<=>OH+HO2                                9.5500E+06   2.000  3.9700E+03 !    19
          REV / 8.5680E+03   2.676  1.8560E+04/
H2O2+OH<=>H2O+HO2                              2.0000E+12   0.000  4.2720E+02 !    20
          REV / 3.6650E+10   0.589  3.1320E+04/
DUPLICATE
H2O2+OH<=>H2O+HO2                              1.7000E+18   0.000  2.9410E+04 !    21
          REV / 3.1150E+16   0.589  6.0300E+04/
DUPLICATE
CO+O(+M)<=>CO2(+M)                             1.8000E+10   0.000  2.3840E+03 !    22
 LOW/  1.3500E+24  -2.788  4.1910E+03 /                                         
 H2/ 2.00/ O2/ 6.00/ H2O/ 6.00/ CO/ 1.50/ CO2/ 3.50/ CH4/ 2.00/ C2H6/ 3.00/     
CO+O2<=>CO2+O                                  1.0500E+12   0.000  4.2540E+04 !    23
          REV / 8.0350E+15  -0.800  5.1230E+04/
CO+OH<=>CO2+H                                  2.2300E+05   1.890 -1.1580E+03 !    24
          REV / 5.8960E+11   0.699  2.4260E+04/
CO+HO2<=>CO2+OH                                3.0100E+13   0.000  2.3000E+04 !    25
          REV / 2.2800E+16  -0.470  8.4970E+04/
HCO+M<=>H+CO+M                                 4.7500E+11   0.660  1.4870E+04 !    26
 H2/ 2.00/ H2O/12.00/ CO/ 1.50/ CO2/ 2.00/ CH4/ 2.00/ C2H6/ 3.00/               
          REV / 3.5820E+10   1.041 -4.5730E+02/
HCO+O2<=>CO+HO2                                7.5800E+12   0.000  4.1000E+02 !    27
          REV / 1.1980E+12   0.309  3.3950E+04/
HCO+H<=>CO+H2                                  7.3400E+13   0.000  0.0000E+00 !    28
          REV / 2.2120E+12   0.656  8.8230E+04/
HCO+O<=>CO+OH                                  3.0200E+13   0.000  0.0000E+00 !    29
          REV / 4.7250E+11   0.638  8.6820E+04/
HCO+O<=>CO2+H                                  3.0000E+13   0.000  0.0000E+00 !    30
          REV / 1.2410E+18  -0.553  1.1220E+05/
HCO+OH<=>CO+H2O                                1.0200E+14   0.000  0.0000E+00 !    31
          REV / 3.2590E+13   0.551  1.0310E+05/
HCO+CH3<=>CH4+CO                               2.6500E+13   0.000  0.0000E+00 !    32
          REV / 7.2860E+14   0.211  8.9770E+04/
HCO+HO2<=>CH2O+O2                              2.4990E+14  -0.061  1.3920E+04 !    33
          REV / 8.0700E+15   0.000  5.3420E+04/
HCO+HO2<=>CO2+H+OH                             3.0000E+13   0.000  0.0000E+00 !    34
          REV / 0.0000E+00   0.000  0.0000E+00/
CH2O+CO<=>2HCO                                 9.1860E+13   0.370  7.3040E+04 !    39
          REV / 1.8000E+13   0.000  0.0000E+00/
2HCO<=>H2+2CO                                  3.0000E+12   0.000  0.0000E+00 !    40
          REV / 0.0000E+00   0.000  0.0000E+00/
HCO+H(+M)<=>CH2O(+M)                           1.0900E+12   0.480 -2.6000E+02 !    41
 LOW/  1.3500E+24  -2.570  1.4250E+03 /                                         
 TROE/ 0.7824      271.0      2755.      6570.     /                            
 H2/ 2.00/ H2O/ 6.00/ CO/ 1.50/ CO2/ 2.00/ CH4/ 2.00/ C2H6/ 3.00/               
CO+H2(+M)<=>CH2O(+M)                           4.3000E+07   1.500  7.9600E+04 !    42
 LOW/  5.0700E+27  -3.420  8.4348E+04 /                                         
 TROE/ 0.9320      197.0      1540.     0.1030E+05 /                            
 H2/ 2.00/ H2O/ 6.00/ CO/ 1.50/ CO2/ 2.00/ CH4/ 2.00/ C2H6/ 3.00/               
CH2O+OH<=>HCO+H2O                              7.8200E+07   1.630 -1.0550E+03 !    43
          REV / 4.8960E+06   1.811  2.9030E+04/
CH2O+H<=>HCO+H2                                5.7400E+07   1.900  2.7400E+03 !    44
          REV / 3.3900E+05   2.187  1.7930E+04/
CH2O+O<=>HCO+OH                                6.2600E+09   1.150  2.2600E+03 !    45
          REV / 1.9190E+07   1.418  1.6040E+04/
CH2O+CH3<=>HCO+CH4                             3.8300E+01   3.360  4.3120E+03 !    46
          REV / 2.0630E+02   3.201  2.1040E+04/
CH2O+HO2<=>HCO+H2O2                            7.1000E-03   4.517  6.5800E+03 !    47
          REV / 2.4260E-02   4.108  5.7690E+03/
HOCHO<=>CO+H2O                                 2.4500E+12   0.000  6.0470E+04 !    48
          REV / 2.2550E+03   2.093  5.2890E+04/
HOCHO<=>CO2+H2                                 2.9500E+09   0.000  4.8520E+04 !    49
          REV / 6.7720E+05   1.008  5.1470E+04/
HOCHO<=>HCO+OH                                 3.4710E+22  -1.542  1.1070E+05 !    50
          REV / 1.0000E+14   0.000  0.0000E+00/
HOCHO+OH<=>H2O+CO2+H                           2.6200E+06   2.060  9.1600E+02 !    52
          REV / 0.0000E+00   0.000  0.0000E+00/
HOCHO+OH<=>H2O+CO+OH                           1.8500E+07   1.510 -9.6200E+02 !    53
          REV / 0.0000E+00   0.000  0.0000E+00/
HOCHO+H<=>H2+CO2+H                             4.2400E+06   2.100  4.8680E+03 !    54
          REV / 0.0000E+00   0.000  0.0000E+00/
HOCHO+H<=>H2+CO+OH                             6.0300E+13  -0.350  2.9880E+03 !    55
          REV / 0.0000E+00   0.000  0.0000E+00/
HOCHO+CH3<=>CH4+CO+OH                          3.9000E-07   5.800  2.2000E+03 !    56
          REV / 0.0000E+00   0.000  0.0000E+00/
HOCHO+HO2<=>H2O2+CO+OH                         1.0000E+12   0.000  1.1920E+04 !    58
          REV / 0.0000E+00   0.000  0.0000E+00/
HOCHO+O<=>CO+2OH                               1.7700E+18  -1.900  2.9750E+03 !    59
          REV / 0.0000E+00   0.000  0.0000E+00/
CH3O(+M)<=>CH2O+H(+M)                          6.8000E+13   0.000  2.6170E+04 !    61
 LOW/  1.8670E+25  -3.000  2.4307E+04 /                                         
 TROE/ 0.9000      2500.      1300.     1.0E+99 /                            
 H2/ 2.00/ H2O/ 6.00/ CO/ 1.50/ CO2/ 2.00/ CH4/ 2.00/ C2H6/ 3.00/               
CH3O+O2<=>CH2O+HO2                             4.3800E-19   9.500 -5.5010E+03 !    62
          REV / 1.4160E-20   9.816  2.1080E+04/
CH2O+CH3O<=>CH3OH+HCO                          6.6200E+11   0.000  2.2940E+03 !    63
          REV / 8.3930E+10   0.074  1.7710E+04/
CH4+CH3O<=>CH3+CH3OH                           6.1190E+02   2.867  8.2480E+03 !    64
          REV / 1.4400E+01   3.100  6.9350E+03/
CH3O+CH3<=>CH2O+CH4                            1.2000E+13   0.000  0.0000E+00 !    65
          REV / 6.7490E+13   0.218  8.2810E+04/
CH3O+H<=>CH2O+H2                               2.0000E+13   0.000  0.0000E+00 !    66
          REV / 1.2330E+11   0.664  8.1270E+04/
CH3O+HO2<=>CH2O+H2O2                           3.0100E+11   0.000  0.0000E+00 !    67
          REV / 1.0740E+12  -0.031  6.5270E+04/
CH2O+H(+M)<=>CH2OH(+M)                         5.4000E+11   0.454  3.6000E+03 !    68
 LOW/  1.2700E+32  -4.820  6.5300E+03 /                                         
 TROE/ 0.7187      103.0      1291.      4160.     /                            
 H2/ 2.00/ H2O/ 6.00/ CO/ 1.50/ CO2/ 2.00/ CH4/ 2.00/ C2H6/ 3.00/               
CH2OH+O2<=>CH2O+HO2                            1.5100E+15  -1.000  0.0000E+00 !    69
          REV / 1.9750E+14  -0.580  2.0060E+04/
DUPLICATE
CH2OH+O2<=>CH2O+HO2                            2.4100E+14   0.000  5.0170E+03 !    70
          REV / 3.1520E+13   0.420  2.5080E+04/
DUPLICATE
CH2OH+H<=>CH2O+H2                              6.0000E+12   0.000  0.0000E+00 !    71
          REV / 1.4970E+11   0.768  7.4750E+04/
CH2OH+HO2<=>CH2O+H2O2                          1.2000E+13   0.000  0.0000E+00 !    72
          REV / 1.7320E+14   0.073  5.8750E+04/
CH2OH+HCO<=>2CH2O                              1.8000E+14   0.000  0.0000E+00 !    73
          REV / 7.6020E+14   0.481  5.9560E+04/
CH2OH+CH3O<=>CH2O+CH3OH                        2.4000E+13   0.000  0.0000E+00 !    74
          REV / 1.2850E+13   0.555  7.4980E+04/
CH2OH+CH2O<=>CH3OH+HCO                         1.8780E+04   2.722  4.2080E+03 !    75
          REV / 9.6300E+03   2.900  1.3110E+04/
OH+CH2OH<=>H2O+CH2O                            2.4000E+13   0.000  0.0000E+00 !    76
          REV / 6.3470E+12   0.662  8.9640E+04/
O+CH2OH<=>OH+CH2O                              4.2000E+13   0.000  0.0000E+00 !    77
          REV / 5.4380E+11   0.749  7.3340E+04/
CH2O+CH3OH<=>2CH2OH                            6.4980E+12   0.659  6.8460E+04 !    78
          REV / 3.0000E+12   0.000  0.0000E+00/
CH3OH(+M)<=>CH3+OH(+M)                         1.9000E+16   0.000  9.1730E+04 !    79
 LOW/  2.9500E+44  -7.350  9.5460E+04 /                                         
 TROE/ 0.4140      279.0      5459.     0.1000E+11 /                            
CH3OH(+M)<=>CH2OH+H(+M)                        2.6900E+16  -0.080  9.8940E+04 !    80
 LOW/  2.3400E+40  -6.330  1.0310E+05 /                                         
 TROE/ 0.7730      693.0      5333.     0.1000E+11 /                            
CH3OH+H<=>CH3O+H2                              3.6000E+12   0.000  6.0950E+03 !    81
          REV / 1.6770E+11   0.212  5.8680E+03/
CH3OH+H<=>CH2OH+H2                             1.2040E+06   2.400  2.5830E+03 !    82
          REV / 1.3860E+04   2.509  8.8710E+03/
CH3OH+O<=>CH2OH+OH                             3.8800E+05   2.500  3.0800E+03 !    83
          REV / 2.3190E+03   2.590  7.9560E+03/
CH3OH+OH<=>CH3O+H2O                            5.1300E+05   2.130  2.4500E+03 !    84
          REV / 2.5340E+05   2.237  1.7120E+04/
CH3OH+OH<=>CH2OH+H2O                           1.4400E+06   2.000 -8.3900E+02 !    85
          REV / 1.7580E+05   2.003  2.0340E+04/
CH3OH+O2<=>CH2OH+HO2                           2.0500E+13   0.000  4.4900E+04 !    86
          REV / 1.2380E+12  -0.239 -3.5010E+03/
CH3OH+HO2<=>CH2OH+H2O2                         1.0800E+04   2.550  1.0530E+04 !    87
          REV / 7.1950E+04   1.963  8.1900E+02/
CH3OH+CH3<=>CH2OH+CH4                          3.1900E+01   3.170  7.1720E+03 !    88
          REV / 3.3510E+02   2.833  1.5000E+04/
CH3O+CH3OH<=>CH2OH+CH3OH                       3.0000E+11   0.000  4.0740E+03 !    89
          REV / 7.4160E+10  -0.104  1.0590E+04/
CH3OH+CH2O<=>2CH3O                             7.9810E+12   0.452  8.1490E+04 !    90
          REV / 6.0300E+13   0.000  0.0000E+00/
CH3+H(+M)<=>CH4(+M)                            1.2700E+16  -0.600  3.8300E+02 !    91
 LOW/  2.4770E+33  -4.760  2.4440E+03 /                                         
 TROE/ 0.7830      74.00      2940.      6960.     /                            
 H2/ 2.00/ H2O/ 6.00/ CO/ 1.50/ CO2/ 2.00/ CH4/ 2.00/ C2H6/ 3.00/               
CH4+H<=>CH3+H2                                 6.1400E+05   2.500  9.5870E+03 !    92
          REV / 6.7300E+02   2.946  8.0470E+03/
CH4+OH<=>CH3+H2O                               5.8300E+04   2.600  2.1900E+03 !    93
          REV / 6.7760E+02   2.940  1.5540E+04/
CH4+O<=>CH3+OH                                 1.0200E+09   1.500  8.6000E+03 !    94
          REV / 5.8040E+05   1.927  5.6480E+03/
CH4+HO2<=>CH3+H2O2                             1.1300E+01   3.740  2.1010E+04 !    95
          REV / 7.1660E+00   3.491  3.4680E+03/
CH4+CH2<=>2CH3                                 2.4600E+06   2.000  8.2700E+03 !    96
          REV / 1.7360E+06   1.868  1.2980E+04/
CH3+OH<=>CH2O+H2                               8.0000E+09   0.500 -1.7550E+03 !    97
          REV / 1.0660E+12   0.322  6.8210E+04/
CH3+OH<=>CH2-S +H2O                            4.5080E+17  -1.340  1.4170E+03 !    98
          REV / 1.6540E+16  -0.855  1.0390E+03/
CH3+OH<=>CH3O+H                                6.9430E+07   1.343  1.1200E+04 !    99
          REV / 1.5000E+12   0.500 -1.1000E+02/
CH3+OH<=>CH2OH+H                               3.0900E+07   1.596  4.5060E+03 !   100
          REV / 1.6500E+11   0.650 -2.8400E+02/
CH3+OH<=>CH2+H2O                               5.6000E+07   1.600  5.4200E+03 !   101
          REV / 9.2240E+05   2.072  1.4060E+04/
CH3+HO2<=>CH3O+OH                              1.0000E+12   0.269 -6.8750E+02 !   102
          REV / 6.1900E+12   0.147  2.4550E+04/
CH3+HO2<=>CH4+O2                               1.1600E+05   2.230 -3.0220E+03 !   103
          REV / 2.0180E+07   2.132  5.3210E+04/
CH3+O<=>CH2O+H                                 5.5400E+13   0.050 -1.3600E+02 !   104
          REV / 3.8300E+15  -0.147  6.8410E+04/
CH3+O2<=>CH3O+O                                7.5460E+12   0.000  2.8320E+04 !   105
          REV / 4.7180E+14  -0.451  2.8800E+02/
CH3+O2<=>CH2O+OH                               2.6410E+00   3.283  8.1050E+03 !   106
          REV / 5.2850E-01   3.477  5.9920E+04/
CH3+O2(+M)<=>CH3O2(+M)                         7.8120E+09   0.900  0.0000E+00 !   107
 LOW/  6.8500E+24  -3.000  0.0000E+00 /                                         
 TROE/ 0.6000      1000.      70.00      1700.     /                            
CH3O2+CH2O<=>CH3O2H+HCO                        1.9900E+12   0.000  1.1660E+04 !   108
          REV / 1.3230E+14  -0.853  9.2590E+03/
CH4+CH3O2<=>CH3+CH3O2H                         1.8100E+11   0.000  1.8480E+04 !   109
          REV / 2.2330E+12  -0.694 -6.5500E+02/
CH3OH+CH3O2<=>CH2OH+CH3O2H                     1.8100E+12   0.000  1.3710E+04 !   110
          REV / 2.3460E+14  -1.031  2.4040E+03/
CH3O2+CH3<=>2CH3O                              5.0800E+12   0.000 -1.4110E+03 !   111
          REV / 1.9670E+12   0.176  2.8070E+04/
CH3O2+HO2<=>CH3O2H+O2                          2.4700E+11   0.000 -1.5700E+03 !   112
          REV / 5.3020E+14  -0.792  3.5520E+04/
2CH3O2<=>CH2O+CH3OH+O2                         3.1100E+14  -1.610 -1.0510E+03 !   113
          REV / 0.0000E+00   0.000  0.0000E+00/
2CH3O2<=>O2+2CH3O                              1.4000E+16  -1.610  1.8600E+03 !   114
          REV / 0.0000E+00   0.000  0.0000E+00/
CH3O2+H<=>CH3O+OH                              9.6000E+13   0.000  0.0000E+00 !   115
          REV / 1.7200E+09   1.019  4.0780E+04/
CH3O2+O<=>CH3O+O2                              3.6000E+13   0.000  0.0000E+00 !   116
          REV / 2.2290E+11   0.628  5.7520E+04/
CH3O2+OH<=>CH3OH+O2                            6.0000E+13   0.000  0.0000E+00 !   117
          REV / 1.5360E+13   0.434  5.9160E+04/
CH3O2H<=>CH3O+OH                               6.3100E+14   0.000  4.2300E+04 !   118
          REV / 2.5140E+06   1.883 -2.8750E+03/
CH2-S <=>CH2                                   1.0000E+13   0.000  0.0000E+00 !   119
          REV / 4.4880E+12  -0.013  9.0200E+03/
CH2-S +CH4<=>2CH3                              1.6000E+13   0.000 -5.7000E+02 !   120
          REV / 5.0670E+12  -0.145  1.3160E+04/
CH2-S +O2<=>CO+OH+H                            7.0000E+13   0.000  0.0000E+00 !   121
          REV / 0.0000E+00   0.000  0.0000E+00/
CH2-S +H2<=>CH3+H                              7.0000E+13   0.000  0.0000E+00 !   122
          REV / 2.0220E+16  -0.591  1.5270E+04/
CH2-S +H<=>CH2+H                               3.0000E+13   0.000  0.0000E+00 !   123
          REV / 1.3460E+13  -0.013  9.0200E+03/
CH2-S +H<=>CH+H2                               3.0000E+13   0.000  0.0000E+00 !   124
          REV / 6.9480E+13  -0.253  1.2480E+04/
CH2-S +O<=>CO+2H                               3.0000E+13   0.000  0.0000E+00 !   125
          REV / 0.0000E+00   0.000  0.0000E+00/
CH2-S +OH<=>CH2O+H                             3.0000E+13   0.000  0.0000E+00 !   126
          REV / 1.1540E+18  -0.770  8.5230E+04/
CH2-S +CO2<=>CH2O+CO                           3.0000E+12   0.000  0.0000E+00 !   127
          REV / 4.3660E+10   0.421  5.9810E+04/
CH2+H(+M)<=>CH3(+M)                            2.5000E+16  -0.800  0.0000E+00 !   128
 LOW/  3.2000E+27  -3.140  1.2300E+03 /                                         
 TROE/ 0.6800      78.00      1995.      5590.     /                            
 H2/ 2.00/ H2O/ 6.00/ CO/ 1.50/ CO2/ 2.00/ CH4/ 2.00/ C2H6/ 3.00/               
CH2+O2<=>CH2O+O                                2.4000E+12   0.000  1.5000E+03 !   129
          REV / 5.9550E+14  -0.365  6.0980E+04/
CH2+O2<=>CO2+2H                                5.8000E+12   0.000  1.5000E+03 !   130
          REV / 0.0000E+00   0.000  0.0000E+00/
CH2+O2<=>CO+OH+H                               5.0000E+12   0.000  1.5000E+03 !   131
          REV / 0.0000E+00   0.000  0.0000E+00/
CH2+O<=>CO+2H                                  5.0000E+13   0.000  0.0000E+00 !   132
          REV / 0.0000E+00   0.000  0.0000E+00/
CH2+H<=>CH+H2                                  1.0000E+18  -1.560  0.0000E+00 !   133
          REV / 5.1600E+18  -1.800  3.4600E+03/
DUPLICATE
CH2+OH<=>CH+H2O                                1.1300E+07   2.000  3.0000E+03 !   134
          REV / 6.1830E+08   1.655  2.1350E+04/
CH+O2<=>HCO+O                                  3.3000E+13   0.000  0.0000E+00 !   135
          REV / 9.3710E+12   0.161  7.1210E+04/
CH+O<=>CO+H                                    5.7000E+13   0.000  0.0000E+00 !   136
          REV / 2.7740E+15   0.000  1.7600E+05/
CH+OH<=>HCO+H                                  3.0000E+13   0.000  0.0000E+00 !   137
          REV / 5.0690E+14   0.000  8.8110E+04/
CH2+H<=>CH+H2                                  2.7000E+11   0.670  2.5700E+04 !   138
          REV / 1.8970E+11   0.670  2.8730E+04/
DUPLICATE
CH+H2O<=>H+CH2O                                1.7130E+13   0.000 -7.5500E+02 !   139
          REV / 8.3720E+14   0.000  5.7520E+04/
CH+CO2<=>HCO+CO                                1.7000E+12   0.000  6.8500E+02 !   140
          REV / 2.5650E+11   0.000  6.6460E+04/
2CH3(+M)<=>C2H6(+M)                            9.2140E+16  -1.170  6.3580E+02 !   141
 LOW/  1.1350E+36  -5.246  1.7050E+03 /                                         
 TROE/ 0.4050      1120.      69.60     0.1000E+11 /                            
 H2/ 2.00/ H2O/ 6.00/ CO/ 1.50/ CO2/ 2.00/ CH4/ 2.00/ C2H6/ 3.00/               
C2H5+H(+M)<=>C2H6(+M)                          5.2100E+17  -0.990  1.5800E+03 !   142
 LOW/  1.9900E+41  -7.080  6.6850E+03 /                                         
 TROE/ 0.8420      125.0      2219.      6882.     /                            
 H2/ 2.00/ H2O/ 6.00/ CO/ 1.50/ CO2/ 2.00/ CH4/ 2.00/ C2H6/ 3.00/               
C2H6+H<=>C2H5+H2                               1.1500E+08   1.900  7.5300E+03 !   143
          REV / 1.0620E+04   2.582  9.7600E+03/
C2H6+O<=>C2H5+OH                               3.5500E+06   2.400  5.8300E+03 !   144
          REV / 1.7020E+02   3.063  6.6480E+03/
C2H6+OH<=>C2H5+H2O                             1.4800E+07   1.900  9.5000E+02 !   145
          REV / 1.4500E+04   2.476  1.8070E+04/
C2H6+O2<=>C2H5+HO2                             6.0300E+13   0.000  5.1870E+04 !   146
          REV / 2.9210E+10   0.334 -5.9300E+02/
C2H6+CH3<=>C2H5+CH4                            1.5100E-07   6.000  6.0470E+03 !   147
          REV / 1.2730E-08   6.236  9.8170E+03/
C2H6+HO2<=>C2H5+H2O2                           3.4600E+01   3.610  1.6920E+04 !   148
          REV / 1.8490E+00   3.597  3.1510E+03/
C2H6+CH3O2<=>C2H5+CH3O2H                       1.9400E+01   3.640  1.7100E+04 !   149
          REV / 2.0170E+01   3.182  1.7340E+03/
C2H6+CH3O<=>C2H5+CH3OH                         2.4100E+11   0.000  7.0900E+03 !   150
          REV / 4.7790E+08   0.469  9.5470E+03/
C2H6+CH<=>C2H5+CH2                             1.1000E+14   0.000 -2.6000E+02 !   151
          REV / 1.9690E+09   0.921 -1.4900E+03/
CH2-S +C2H6<=>CH3+C2H5                         1.2000E+14   0.000  0.0000E+00 !   152
          REV / 3.2030E+12   0.091  1.7500E+04/
C2H4+H(+M)<=>C2H5(+M)                          1.0810E+12   0.454  1.8220E+03 !   153
 LOW/  1.2000E+42  -7.620  6.9700E+03 /                                         
 TROE/ 0.9750      210.0      984.0      4374.     /                            
 H2/ 2.00/ H2O/ 6.00/ CO/ 1.50/ CO2/ 2.00/ CH4/ 2.00/ C2H6/ 3.00/               
H2+CH3O2<=>H+CH3O2H                            1.5000E+14   0.000  2.6030E+04 !   154
          REV / 1.6880E+18  -1.140  8.4340E+03/
H2+C2H5O2<=>H+C2H5O2H                          1.5000E+14   0.000  2.6030E+04 !   155
          REV / 1.6910E+18  -1.140  8.4380E+03/
C2H5+C2H3<=>2C2H4                              6.8590E+11   0.110 -4.3000E+03 !   156
          REV / 4.8200E+14   0.000  7.1530E+04/
CH3+C2H5<=>CH4+C2H4                            1.1800E+04   2.450 -2.9210E+03 !   157
          REV / 2.3900E+06   2.400  6.6690E+04/
C2H5+H<=>2CH3                                  9.6900E+13   0.000  2.2000E+02 !   158
          REV / 2.0290E+09   1.028  1.0510E+04/
C2H5+H<=>C2H4+H2                               2.0000E+12   0.000  0.0000E+00 !   159
          REV / 4.4400E+11   0.396  6.8070E+04/
C2H5+O<=>CH3CHO+H                              1.1000E+14   0.000  0.0000E+00 !   160
          REV / 1.0330E+17  -0.500  7.7420E+04/
C2H5+HO2<=>C2H5O+OH                            1.1000E+13   0.000  0.0000E+00 !   161
          REV / 9.6800E+15  -0.723  2.7650E+04/
CH3O2+C2H5<=>CH3O+C2H5O                        8.0000E+12   0.000 -1.0000E+03 !   162
          REV / 4.4040E+14  -0.425  3.0890E+04/
C2H5O+O2<=>CH3CHO+HO2                          4.2800E+10   0.000  1.0970E+03 !   163
          REV / 1.3220E+08   0.615  3.4130E+04/
C2H5O<=>CH3+CH2O                               1.3210E+20  -2.018  2.0750E+04 !   164
          REV / 3.0000E+11   0.000  6.3360E+03/
C2H5O<=>CH3CHO+H                               5.4280E+15  -0.687  2.2230E+04 !   165
          REV / 8.0000E+12   0.000  6.4000E+03/
C2H5O2<=>C2H5+O2                               1.3120E+62 -14.784  4.9180E+04 !   166
          REV / 2.8760E+56 -13.820  1.4620E+04/
C2H5O2+CH2O<=>C2H5O2H+HCO                      1.9900E+12   0.000  1.1660E+04 !   167
          REV / 1.3250E+14  -0.853  9.2630E+03/
CH4+C2H5O2<=>CH3+C2H5O2H                       1.8100E+11   0.000  1.8480E+04 !   168
          REV / 2.2370E+12  -0.694 -6.5100E+02/
CH3OH+C2H5O2<=>CH2OH+C2H5O2H                   1.8100E+12   0.000  1.3710E+04 !   169
          REV / 2.3500E+14  -1.031  2.4080E+03/
C2H5O2+HO2<=>C2H5O2H+O2                        1.7500E+10   0.000 -3.2750E+03 !   170
          REV / 3.7630E+13  -0.792  3.3820E+04/
C2H6+C2H5O2<=>C2H5+C2H5O2H                     8.6000E+00   3.760  1.7200E+04 !   171
          REV / 8.9570E+00   3.302  1.8380E+03/
C2H5O2H<=>C2H5O+OH                             6.3100E+14   0.000  4.2300E+04 !   172
          REV / 5.6610E+08   1.033 -1.7050E+03/
C2H5+O2<=>C2H4+HO2                             7.5610E+14  -1.010  4.7490E+03 !   173
          REV / 8.8020E+14  -0.962  1.8130E+04/
DUPLICATE
C2H5+O2<=>C2H4+HO2                             4.0000E-01   3.880  1.3620E+04 !   174
          REV / 4.6560E-01   3.928  2.7000E+04/
DUPLICATE
C2H5+O2<=>CH3CHO+OH                            8.2650E+02   2.410  5.2850E+03 !   175
          REV / 2.2470E+03   2.301  6.5970E+04/
C2H5O2<=>CH3CHO+OH                             2.5200E+41 -10.200  4.3710E+04 !   176
          REV / 1.5020E+36  -9.345  6.9840E+04/
C2H5O2<=>C2H4+HO2                              1.8150E+38  -8.450  3.7890E+04 !   177
          REV / 4.6320E+32  -7.438  1.6700E+04/
C2H3O1-2<=>CH3CO                               8.5000E+14   0.000  1.4000E+04 !   178
          REV / 1.0020E+14   0.041  4.8710E+04/
C2H3O1-2<=>CH2CHO                              1.0000E+14   0.000  1.4000E+04 !   179
          REV / 1.2450E+15  -0.375  4.4010E+04/
CH3CHO<=>CH3+HCO                               7.6870E+20  -1.342  8.6950E+04 !   180
          REV / 1.7500E+13   0.000  0.0000E+00/
CH3CHO+H<=>CH3CO+H2                            2.3700E+13   0.000  3.6420E+03 !   181
          REV / 1.6390E+10   0.633  1.7600E+04/
CH3CHO+O<=>CH3CO+OH                            5.9400E+12   0.000  1.8680E+03 !   182
          REV / 2.1330E+09   0.614  1.4410E+04/
CH3CHO+OH<=>CH3CO+H2O                          3.3700E+12   0.000 -6.1900E+02 !   183
          REV / 2.4720E+10   0.527  2.8230E+04/
CH3CHO+O2<=>CH3CO+HO2                          3.0100E+13   0.000  3.9150E+04 !   184
          REV / 1.0920E+11   0.285 -1.5880E+03/
CH3CHO+CH3<=>CH3CO+CH4                         7.0800E-04   4.580  1.9660E+03 !   185
          REV / 4.4680E-04   4.767  1.7460E+04/
CH3CHO+HO2<=>CH3CO+H2O2                        3.0100E+12   0.000  1.1920E+04 !   186
          REV / 1.2050E+12  -0.062  9.8770E+03/
CH3O2+CH3CHO<=>CH3O2H+CH3CO                    3.0100E+12   0.000  1.1920E+04 !   187
          REV / 2.3440E+13  -0.507  8.2820E+03/
CH3CHO+OH<=>CH3+HOCHO                          3.0000E+15  -1.076  0.0000E+00 !   188
          REV / 2.3710E+16  -1.277  2.3750E+04/
CH3CHO+OH<=>CH2CHO+H2O                         1.7200E+05   2.400  8.1500E+02 !   189
          REV / 1.3320E+05   2.511  2.4950E+04/