THERMO ALL
   300.000  1000.000  5000.000
N2                000000N   2               G    300.00   5000.00 1000.00      1
 2.92664000E+00 1.48797700E-03-5.68476100E-07 1.00970400E-10-6.75335100E-15    2
-9.22797700E+02 5.98052800E+00 3.29867700E+00 1.40824000E-03-3.96322200E-06    3
 5.64151500E-09-2.44485500E-12-1.02090000E+03 3.95037200E+00                   4
CH3               000000C   1H   3          G    300.00   5000.00 1000.00      1
 2.84405200E+00 6.13797400E-03-2.23034500E-06 3.78516100E-10-2.45215900E-14    2
 1.64378100E+04 5.45269700E+00 2.43044300E+00 1.11241000E-02-1.68022000E-05    3
 1.62182900E-08-5.86495300E-12 1.64237800E+04 6.78979400E+00                   4
H                 000000H   1               G    300.00   5000.00 1000.00      1
 2.50104422E+00 0.00000000E+00 0.00000000E+00 0.00000000E+00 0.00000000E+00    2
 2.54747466E+04-4.65341317E-01 2.50104422E+00 0.00000000E+00 0.00000000E+00    3
 0.00000000E+00 0.00000000E+00 2.54747466E+04-4.65341317E-01                   4
CH4               000000C   1H   4          G    300.00   5000.00 1000.00      1
 1.68347900E+00 1.02372400E-02-3.87512900E-06 6.78558500E-10-4.50342300E-14    2
-1.00807900E+04 9.62339500E+00 7.78741500E-01 1.74766800E-02-2.78340900E-05    3
 3.04970800E-08-1.22393100E-11-9.82522900E+03 1.37221900E+01                   4
H2                000000H   2               G    300.00   5000.00 1000.00      1
 2.99142300E+00 7.00064400E-04-5.63382900E-08-9.23157800E-12 1.58275200E-15    2
-8.35034000E+02-1.35511000E+00 3.29812400E+00 8.24944200E-04-8.14301500E-07    3
-9.47543400E-11 4.13487200E-13-1.01252100E+03-3.29409400E+00                   4
OH                000000H   1O   1          G    300.00   5000.00 1000.00      1
 3.69039275E+00-5.80802318E-04 7.63303256E-07-1.80262059E-10 0.00000000E+00    2
 3.67872158E+03 1.15883087E+00 3.43586219E+00 2.02235804E-04-1.13546412E-07    3
 2.42445149E-10-7.43651031E-14 3.74321252E+03 2.45014127E+00                   4
H2O               000000H   2O   1          G    300.00   5000.00 1000.00      1
 2.67214600E+00 3.05629300E-03-8.73026000E-07 1.20099600E-10-6.39161800E-15    2
-2.98992100E+04 6.86281700E+00 3.38684200E+00 3.47498200E-03-6.35469600E-06    3
 6.96858100E-09-2.50658800E-12-3.02081100E+04 2.59023300E+00                   4
O                 000000O   1               G    300.00   5000.00 1000.00      1
 2.54206000E+00-2.75506200E-05-3.10280300E-09 4.55106700E-12-4.36805200E-16    2
 2.92308000E+04 4.92030800E+00 2.94642900E+00-1.63816600E-03 2.42103200E-06    3
-1.60284300E-09 3.89069600E-13 2.91476400E+04 2.96399500E+00                   4
HCO               000000C   1H   1O   1     G    300.00   5000.00 1000.00      1
 3.55727100E+00 3.34557300E-03-1.33500600E-06 2.47057300E-10-1.71385100E-14    2
 3.91632400E+03 5.55229900E+00 2.89833000E+00 6.19914700E-03-9.62308400E-06    3
 1.08982500E-08-4.57488500E-12 4.15992200E+03 8.98361400E+00                   4
CO                000000C   1O   1          G    300.00   5000.00 1000.00      1
 3.02507800E+00 1.44268900E-03-5.63082800E-07 1.01858100E-10-6.91095200E-15    2
-1.42683500E+04 6.10821800E+00 3.26245200E+00 1.51194100E-03-3.88175500E-06    3
 5.58194400E-09-2.47495100E-12-1.43105400E+04 4.84889700E+00                   4
CO2               000000C   1O   2          G    300.00   5000.00 1000.00      1
 4.45362300E+00 3.14016900E-03-1.27841100E-06 2.39399700E-10-1.66903300E-14    2
-4.89669600E+04-9.55395900E-01 2.27572500E+00 9.92207200E-03-1.04091100E-05    3
 6.86668700E-09-2.11728000E-12-4.83731400E+04 1.01884900E+01                   4
O2                000000O   2               G    300.00   5000.00 1000.00      1
 3.69757800E+00 6.13519700E-04-1.25884200E-07 1.77528100E-11-1.13643500E-15    2
-1.23393000E+03 3.18916600E+00 3.21293600E+00 1.12748600E-03-5.75615000E-07    3
 1.31387700E-09-8.76855400E-13-1.00524900E+03 6.03473800E+00                   4
H2O2              000000H   2O   2          G    300.00   5000.00 1000.00      1
 4.57316700E+00 4.33613600E-03-1.47468900E-06 2.34890400E-10-1.43165400E-14    2
-1.80069600E+04 5.01137000E-01 3.38875400E+00 6.56922600E-03-1.48501300E-07    3
-4.62580600E-09 2.47151500E-12-1.76631500E+04 6.78536300E+00                   4
HO2               000000H   1O   2          G    300.00   5000.00 1000.00      1
 3.00201579E+00 4.38552424E-03-1.97594219E-06 3.32090097E-10 0.00000000E+00    2
 8.44944001E+02 9.26704616E+00 3.18310656E+00 3.66767950E-03-9.32385122E-07    3
-3.25852919E-10 1.51139912E-13 8.09181013E+02 8.39371099E+00                   4
C2H4              000000C   2H   4          G    300.00   5000.00 1000.00      1
 3.52841900E+00 1.14851800E-02-4.41838500E-06 7.84460100E-10-5.26684800E-14    2
 4.42828900E+03 2.23038900E+00-8.61488000E-01 2.79616300E-02-3.38867700E-05    3
 2.78515200E-08-9.73787900E-12 5.57304600E+03 2.42114900E+01                   4
C2H5              000000C   2H   5          G    300.00   5000.00 1000.00      1
 7.19048000E+00 6.48407700E-03-6.42806500E-07-2.34787900E-10 3.88087700E-14    2
 1.06745500E+04-1.47808900E+01 2.69070200E+00 8.71913300E-03 4.41983900E-06    3
 9.33870300E-10-3.92777300E-12 1.28704000E+04 1.21382000E+01                   4
CH3OH             000000C   1H   4O   1     G    300.00   5000.00 1000.00      1
 4.02906100E+00 9.37659300E-03-3.05025400E-06 4.35879300E-10-2.22472300E-14    2
-2.61579100E+04 2.37819600E+00 2.66011500E+00 7.34150800E-03 7.17005100E-06    3
-8.79319400E-09 2.39057000E-12-2.53534800E+04 1.12326300E+01                   4
C2H6              000000C   2H   6          G    300.00   5000.00 1000.00      1
 2.78247515E-01 2.31689676E-02-1.02319436E-05 1.67699340E-09 0.00000000E+00    2
-1.13124605E+04 1.96191748E+01-2.52854344E-02 2.40764754E-02-1.11893472E-05    3
 2.08340901E-09-5.29868616E-14-1.12345534E+04 2.11648750E+01                   4
CH2OH             000000C   1H   3O   1     G    300.00   5000.00 1000.00      1
 6.32752000E+00 3.60827100E-03-3.20154700E-07-1.93875000E-10 3.50970500E-14    2
-4.47450900E+03-8.32936600E+00 2.86262800E+00 1.00152700E-02-5.28543600E-07    3
-5.13854000E-09 2.24604100E-12-3.34967900E+03 1.03979400E+01                   4
CH3O              000000C   1H   3O   1     G    300.00   5000.00 1000.00      1
 3.77080000E+00 7.87149700E-03-2.65638400E-06 3.94443100E-10-2.11261600E-14    2
 1.27832500E+02 2.92957500E+00 2.10620400E+00 7.21659500E-03 5.33847200E-06    3
-7.37763600E-09 2.07561100E-12 9.78601100E+02 1.31521800E+01                   4
CH2O              000000C   1H   2O   1     G    300.00   5000.00 1000.00      1
 2.99560600E+00 6.68132100E-03-2.62895500E-06 4.73715300E-10-3.21251700E-14    2
-1.53203700E+04 6.91257200E+00 1.65273100E+00 1.26314400E-02-1.88816800E-05    3
 2.05003100E-08-8.41323700E-12-1.48654000E+04 1.37848200E+01                   4
C2H2              000000C   2H   2          G    300.00   5000.00 1000.00      1
 4.43677000E+00 5.37603900E-03-1.91281700E-06 3.28637900E-10-2.15671000E-14    2
 2.56676600E+04-2.80033800E+00 2.01356200E+00 1.51904500E-02-1.61631900E-05    3
 9.07899200E-09-1.91274600E-12 2.61244400E+04 8.80537800E+00                   4
C2H3              000000C   2H   3          G    300.00   5000.00 1000.00      1
 5.93346800E+00 4.01774600E-03-3.96674000E-07-1.44126700E-10 2.37864400E-14    2
 3.18543500E+04-8.53031300E+00 2.45927600E+00 7.37147600E-03 2.10987300E-06    3
-1.32164200E-09-1.18478400E-12 3.33522500E+04 1.15562000E+01                   4
C2H               000000C   2H   1          G    300.00   5000.00 1000.00      1
 3.98636700E+00 3.14312300E-03-1.26724300E-06 2.92436300E-10-2.71632000E-14    2
 6.65588400E+04 1.19106300E+00 2.73770400E+00 8.04844600E-03-9.24431000E-06    3
 6.52525900E-09-1.93958000E-12 6.68381300E+04 7.30022000E+00                   4
HCCO              000000C   2H   1O   1     G    300.00   5000.00 1000.00      1
 6.75807300E+00 2.00040000E-03-2.02760700E-07-1.04113200E-10 1.96516500E-14    2
 1.90151300E+04-9.07126200E+00 5.04796500E+00 4.45347800E-03 2.26828300E-07    3
-1.48209500E-09 2.25074200E-13 1.96589200E+04 4.81843900E-01                   4
CH2CO             000000C   2H   2O   1     G    300.00   5000.00 1000.00      1
 6.03881700E+00 5.80484000E-03-1.92095400E-06 2.79448500E-10-1.45886800E-14    2
-8.58340200E+03-7.65758100E+00 2.97497100E+00 1.21187100E-02-2.34504600E-06    3
-6.46668500E-09 3.90564900E-12-7.63263700E+03 8.67355300E+00                   4
CH2XS             000000C   1H   2          G    300.00   5000.00 1000.00      1
 3.55288900E+00 2.06678800E-03-1.91411600E-07-1.10467300E-10 2.02135000E-14    2
 4.98497500E+04 1.68657000E+00 3.97126500E+00-1.69908900E-04 1.02536900E-06    3
 2.49255100E-09-1.98126600E-12 4.98936800E+04 5.75320700E-02                   4
CH3CO             000000C   2H   3O   1     G    300.00   5000.00 1000.00      1
 5.61227900E+00 8.44988600E-03-2.85414700E-06 4.23837600E-10-2.26840400E-14    2
-5.18786300E+03-3.27494900E+00 3.12527800E+00 9.77822000E-03 4.52144800E-06    3
-9.00946200E-09 3.19371800E-12-4.10850800E+03 1.12288500E+01                   4
CH3CHO            000000C   2H   4O   1     G    300.00   5000.00 1000.00      1
 5.86865000E+00 1.07942400E-02-3.64553000E-06 5.41291200E-10-2.89684400E-14    2
-2.26456900E+04-6.01294600E+00 2.50569500E+00 1.33699100E-02 4.67195300E-06    3
-1.12814000E-08 4.26356600E-12-2.12458900E+04 1.33508900E+01                   4
C3H4XP            000000C   3H   4          G    300.00   5000.00 1000.00      1
 1.76237742E+00 2.05568619E-02-1.01191630E-05 1.83936170E-09 0.00000000E+00    2
 2.17000925E+04 1.39629625E+01 3.02973000E+00 1.49896100E-02-1.39850000E-06    3
-3.96961900E-09 1.38821700E-12 2.14840800E+04 8.00459400E+00                   4
C3H5XA            000000C   3H   5          G    300.00   5000.00 1000.00      1
 3.66851913E+00 1.96203316E-02-8.52931569E-06 1.38113234E-09 0.00000000E+00    2
 1.83798091E+04 4.27588674E+00-5.29131958E-01 3.34559100E-02-2.53401027E-05    3
 1.02865754E-08-1.73258340E-12 1.93834226E+04 2.53067131E+01                   4
C3H6              000000C   3H   6          G    300.00   5000.00 1000.00      1
 1.68134957E+00 2.49690718E-02-1.11276041E-05 1.84413526E-09 0.00000000E+00    2
 7.40726095E+02 1.53699482E+01 3.94615444E-01 2.89107662E-02-1.54886808E-05    3
 3.88814209E-09-3.37890352E-13 1.06688164E+03 2.19003736E+01                   4
CH3CHCO           000000C   3H   4O   1     G    300.00   5000.00 1000.00      1
 6.45951145E+00 1.56117000E-02-6.55127220E-06 1.02541702E-09 0.00000000E+00    2
-1.27042477E+04-7.71512800E+00 1.48380119E+00 3.22203013E-02-2.70250033E-05    3
 1.20499164E-08-2.18365931E-12-1.15276540E+04 1.71552068E+01                   4
C4H6              000000C   4H   6          G    300.00   5000.00 1000.00      1
 6.31773432E+00 2.17235924E-02-8.92512394E-06 1.36214233E-09 0.00000000E+00    2
 9.94065362E+03-9.56816296E+00-1.43095121E+00 4.78706062E-02-4.15446800E-05    3
 1.91549552E-08-3.57158507E-12 1.17551314E+04 2.90825833E+01                   4
C3H4XA            000000C   3H   4          G    300.00   5000.00 1000.00      1
 1.97418459E+00 2.05280021E-02-1.01844059E-05 1.87323627E-09 0.00000000E+00    2
 2.25034216E+04 1.21178939E+01 2.53983100E+00 1.63343700E-02-1.76495000E-06    3
-4.64736500E-09 1.72913100E-12 2.25124300E+04 9.93570200E+00                   4
NXC3H7            000000C   3H   7          G    300.00   5000.00 1000.00      1
 7.97829100E+00 1.57611300E-02-5.17324300E-06 7.44389200E-10-3.82497800E-14    2
 7.57940200E+03-1.93561100E+01 1.92253700E+00 2.47892700E-02 1.81024900E-06    3
-1.78326600E-08 8.58299600E-12 9.71328100E+03 1.39927100E+01                   4
C5H9              000000C   5H   9          G    300.00   5000.00 1000.00      1
 3.78447384E+00 3.92999515E-02-1.78010500E-05 2.98594285E-09 0.00000000E+00    2
 1.12889042E+04 6.61027315E+00-1.38013950E+00 5.57608487E-02-3.70143928E-05    3
 1.26883901E-08-1.78538835E-12 1.25589824E+04 3.26441304E+01                   4
C4H7              000000C   4H   7          G    300.00   5000.00 1000.00      1
 3.81780717E+00 2.91017034E-02-1.29034435E-05 2.12640447E-09 0.00000000E+00    2
 1.39849665E+04 5.79255273E+00-3.50508352E-01 4.26511243E-02-2.90979373E-05    3
 1.05403914E-08-1.60059854E-12 1.49933591E+04 2.67295696E+01                   4
C4H8X1            000000C   4H   8          G    300.00   5000.00 1000.00      1
 3.04470367E+00 3.27451765E-02-1.45363237E-05 2.39744017E-09 0.00000000E+00    2
-2.52177534E+03 1.00151514E+01-8.31372089E-01 4.52580978E-02-2.93658559E-05    3
 1.00220436E-08-1.43191680E-12-1.57875035E+03 2.95084236E+01                   4
PXC4H9            000000C   4H   9          G    300.00   5000.00 1000.00      1
 3.81812330E+00 3.40790489E-02-1.49135433E-05 2.43205247E-09 0.00000000E+00    2
 6.65901304E+03 7.30417607E+00-4.37779725E-01 4.78972364E-02-3.14023159E-05    3
 1.09786472E-08-1.62010664E-12 7.68945248E+03 2.86852732E+01                   4
CH3COCH2          000000C   3H   5O   1     G    300.00   5000.00 1000.00      1
 4.27637519E+00 2.22349285E-02-1.00918419E-05 1.68997058E-09 0.00000000E+00    2
-5.97887937E+03 5.34578139E+00 1.80339187E+00 3.01407085E-02-1.93505552E-05    3
 6.38199034E-09-8.66103180E-13-5.37233261E+03 1.78046408E+01                   4
C2H5CHO           000000C   3H   6O   1     G    300.00   5000.00 1000.00      1
 3.10401322E+00 2.66733882E-02-1.20750385E-05 2.02236556E-09 0.00000000E+00    2
-2.44647131E+04 1.13387411E+01 2.16308444E+00 2.95501264E-02-1.52446252E-05    3
 3.49503947E-09-2.38896627E-13-2.42260137E+04 1.61153348E+01                   4
C5H10X1           000000C   5H  10          G    300.00   5000.00 1000.00      1
 3.98580522E+00 4.12429986E-02-1.84390497E-05 3.06155241E-09 0.00000000E+00    2
-5.70112071E+03 6.85332264E+00-1.06223481E+00 5.74218294E-02-3.74486890E-05    3
 1.27364989E-08-1.79609789E-12-4.46546666E+03 3.22739790E+01                   4
CH2CHO            000000C   2H   3O   1     G    300.00   5000.00 1000.00      1
 5.97567000E+00 8.13059100E-03-2.74362400E-06 4.07030400E-10-2.17601700E-14    2
 4.90321800E+02-5.04525100E+00 3.40906200E+00 1.07385700E-02 1.89149200E-06    3
-7.15858300E-09 2.86738500E-12 1.52147700E+03 9.55829000E+00                   4
C5H11X1           000000C   5H  11          G    300.00   5000.00 1000.00      1
 4.88920629E+00 4.22834537E-02-1.85843100E-05 3.04124763E-09 0.00000000E+00    2
 3.43475468E+03 3.43704878E+00-9.05255912E-01 6.10632852E-02-4.09491825E-05    3
 1.46093470E-08-2.18859615E-12 4.83995303E+03 3.25574963E+01                   4
C2H5O             000000C   2H   5O   1     G    300.00   5000.00 1000.00      1
 2.46262349E+00 2.09503959E-02-9.39291750E-06 1.56440627E-09 0.00000000E+00    2
-3.83932658E+03 1.28738847E+01 4.94420708E-01 2.71774434E-02-1.65909010E-05    3
 5.15204200E-09-6.48496915E-13-3.35252925E+03 2.28079378E+01                   4
CH3O2             000000C   1H   3O   2     G    300.00   5000.00 1000.00      1
 3.72224006E+00 1.15430493E-02-4.55058763E-06 6.70308528E-10 0.00000000E+00    2
-5.34692750E+02 7.95706399E+00 4.26146906E+00 1.00873599E-02-3.21506184E-06    3
 2.09409267E-10 4.18339103E-14-6.84394259E+02 5.16330320E+00                   4
CH3O2H            000000C   1H   4O   2     G    300.00   5000.00 1000.00      1
 4.46640989E+00 1.51021326E-02-6.80105535E-06 1.13252538E-09 0.00000000E+00    2
-1.80236075E+04 3.04195823E+00 3.23442817E+00 1.90129767E-02-1.13386287E-05    3
 3.40306653E-09-4.11830222E-13-1.77197926E+04 9.25623949E+00                   4
C3H2              000000C   3H   2          G    300.00   5000.00 1000.00      1
 7.67098100E+00 2.74874900E-03-4.37094300E-07-6.45559900E-11 1.66388700E-14    2
 6.25972200E+04-1.23689000E+01 3.16671400E+00 2.48257200E-02-4.59163700E-05    3
 4.26801900E-08-1.48215200E-11 6.35042100E+04 8.86944600E+00                   4
C2H3CO            000000C   3H   3O   1     G    300.00   5000.00 1000.00      1
 7.49438492E+00 1.07546430E-02-3.99256412E-06 5.48455956E-10 0.00000000E+00    2
 2.82679210E+03-1.33012118E+01 1.36242013E+00 3.15273972E-02-3.00218935E-05    3
 1.48167112E-08-2.87971530E-12 4.25770215E+03 1.72626546E+01                   4
C2H3CHO           000000C   3H   4O   1     G    300.00   5000.00 1000.00      1
 5.56154592E+00 1.79295837E-02-8.03464758E-06 1.32295375E-09 0.00000000E+00    2
-1.29035886E+04-3.47372739E+00 2.92355162E-01 3.54321417E-02-2.94936324E-05    3
 1.28100124E-08-2.26144108E-12-1.16521584E+04 2.28878280E+01                   4
C3H5O             000000C   3H   5O   1     G    300.00   5000.00 1000.00      1
 3.39074577E+00 2.41301620E-02-1.13650894E-05 1.97900938E-09 0.00000000E+00    2
 9.00757452E+03 1.03459501E+01 1.19822582E+00 3.05579837E-02-1.80630276E-05    3
 4.86150033E-09-4.19854562E-13 9.58217784E+03 2.15566221E+01                   4
C4H7O             000000C   4H   7O   1     G    300.00   5000.00 1000.00      1
 6.21920403E+00 3.10373110E-02-1.47414983E-05 2.57805897E-09 0.00000000E+00    2
 2.91790666E+03-4.77187791E+00-1.60619192E+00 5.58562682E-02-4.35595767E-05    3
 1.70589279E-08-2.65635180E-12 4.85090326E+03 3.47112559E+01                   4
C3H3              000000C   3H   3          G    300.00   5000.00 1000.00      1
 8.83104700E+00 4.35719500E-03-4.10906700E-07-2.36872300E-10 4.37652000E-14    2
 3.84742000E+04-2.17791900E+01 4.75420000E+00 1.10802800E-02 2.79332300E-07    3
-5.47921200E-09 1.94962900E-12 3.98888300E+04 5.85454900E-01                   4
C2H3O1X2          000000C   2H   3O   1     G    300.00   5000.00 1000.00      1
 3.41055375E+00 1.35293434E-02-6.24936923E-06 1.09125656E-09 0.00000000E+00    2
 1.39901041E+04 6.79962828E+00-1.62965122E+00 2.93455486E-02-2.43737550E-05    3
 1.00522325E-08-1.61259036E-12 1.52459425E+04 3.22782741E+01                   4
NXC3H7CHO         000000C   4H   8O   1     G    300.00   5000.00 1000.00      1
 3.99143562E+00 3.53602593E-02-1.61297177E-05 2.72102879E-09 0.00000000E+00    2
-2.76351912E+04 8.43276649E+00 1.87415959E+00 4.19240315E-02-2.35148779E-05    3
 6.26913673E-09-6.09443908E-13-2.71032194E+04 1.91568574E+01                   4
NXC3H7CO          000000C   4H   7O   1     G    300.00   5000.00 1000.00      1
 4.45435627E+00 3.15546013E-02-1.43652234E-05 2.41530538E-09 0.00000000E+00    2
-9.02549160E+03 7.47200116E+00 2.67256826E+00 3.71198825E-02-2.06862859E-05    3
 5.48873888E-09-5.35864183E-13-8.58050888E+03 1.64848950E+01                   4
C2H5COCH2         000000C   4H   7O   1     G    300.00   5000.00 1000.00      1
 5.33383611E+00 3.13958529E-02-1.43898013E-05 2.41217813E-09 0.00000000E+00    2
-1.04116157E+04 9.78236460E-01 1.54013856E+00 4.39486258E-02-2.97002421E-05    3
 1.05495313E-08-1.58598769E-12-9.50796505E+03 1.99706641E+01                   4
NXC3H7COCH3       000000C   5H  10O   1     G    300.00   5000.00 1000.00      1
 4.19068426E+00 4.47242693E-02-2.02065387E-05 3.36709778E-09 0.00000000E+00    2
-3.43449298E+04 8.77889885E+00 1.24037361E+00 5.42494047E-02-3.14825332E-05    3
 9.14492321E-09-1.07665566E-12-3.36276472E+04 2.36150068E+01                   4
NXC3H7COCH2       000000C   5H   9O   1     G    300.00   5000.00 1000.00      1
 6.60541751E+00 3.79192119E-02-1.65663397E-05 2.67992561E-09 0.00000000E+00    2
-1.36381032E+04-4.80036099E+00 9.58299271E-01 5.68162532E-02-3.99112781E-05    3
 1.52671514E-08-2.49221047E-12-1.23062238E+04 2.34112884E+01                   4
C7H16             000000C   7H  16          G    300.00   5000.00 1000.00      1
 5.14079241E+00 6.53078671E-02-2.94827624E-05 4.93726726E-09 0.00000000E+00    2
-2.72533890E+04 2.98195967E+00-1.26836187E+00 8.54355820E-02-5.25346786E-05    3
 1.62945721E-08-2.02394925E-12-2.56586565E+04 3.53732912E+01                   4
C7H15             000000C   7H  15          G    300.00   5000.00 1000.00      1
 3.74721159E+00 6.49345162E-02-3.01341025E-05 5.17418142E-09 0.00000000E+00    2
-3.37018357E+03 1.42780413E+01-3.79155767E-02 7.56726570E-02-4.07473634E-05    3
 9.32678943E-09-4.92360745E-13-2.35605303E+03 3.37321506E+01                   4
C7H15X1           000000C   7H  15          G    300.00   5000.00 1000.00      1
 5.67638200E+00 6.14628445E-02-2.77753660E-05 4.65470891E-09 0.00000000E+00    2
-2.58110033E+03 3.45048078E+00-4.99570406E-01 8.08826467E-02-5.00532754E-05    3
 1.56549308E-08-1.96616227E-12-1.04590223E+03 3.46564011E+01                   4
C7H15O2           000000C   7H  15O   2     G    300.00   5000.00 1000.00      1
 9.89841175E+00 6.24384509E-02-2.75935765E-05 4.50200409E-09 0.00000000E+00    2
-2.38388710E+04-1.47702893E+01 3.55252917E-01 9.42381007E-02-6.66955106E-05    3
 2.54795583E-08-4.13211105E-12-2.15795254E+04 3.29433435E+01                   4
C7H14OOH          000000C   7H  15O   2     G    300.00   5000.00 1000.00      1
 9.54031950E+00 6.46084540E-02-2.96758488E-05 5.01243246E-09 0.00000000E+00    2
-1.74883860E+04-1.04500638E+01 8.49786005E-01 9.25107196E-02-6.25359834E-05    3
 2.17880390E-08-3.12720398E-12-1.53640679E+04 3.32997487E+01                   4
C7H14O            000000C   7H  14O   1     G    300.00   5000.00 1000.00      1
 7.16120686E+00 6.11840510E-02-2.75989647E-05 4.60614647E-09 0.00000000E+00    2
-2.97595599E+04-7.93871866E+00-5.39477206E+00 1.01846577E-01-7.60046236E-05    3
 2.96538020E-08-4.74854370E-12-2.67118295E+04 5.51731319E+01                   4
C7H14OOHO2        000000C   7H  15O   4     G    300.00   5000.00 1000.00      1
 1.57047794E+01 6.29699085E-02-2.82194134E-05 4.63964482E-09 0.00000000E+00    2
-3.80085125E+04-3.98221501E+01 1.40912479E+00 1.10720834E-01-8.71178075E-05    3
 3.63662749E-08-6.28350689E-12-3.46304788E+04 3.16223383E+01                   4
NC7KET            000000C   7H  14O   3     G    300.00   5000.00 1000.00      1
 1.17205530E+01 6.19098523E-02-2.80401403E-05 4.65435348E-09 0.00000000E+00    2
-5.48001654E+04-2.15835396E+01 1.52936692E+00 9.58173466E-02-6.96688520E-05    3
 2.69540382E-08-4.38728126E-12-5.23839542E+04 2.93851334E+01                   4
