ELEMENTS
N  C  H  O  
END
SPECIES
N2                CH3               H                 CH4               H2                OH                H2O               O                 
HCO               CO                CO2               O2                H2O2              HO2               C2H4              C2H5              
CH3OH             C2H6              CH2OH             CH3O              CH2O              C2H2              C2H3              C2H               
HCCO              CH2CO             CH2XS             CH3CO             CH3CHO            C3H4XP            C3H5XA            C3H6              
CH3CHCO           C4H6              C3H4XA            NXC3H7            C5H9              C4H7              C4H8X1            PXC4H9            
CH3COCH2          C2H5CHO           C5H10X1           CH2CHO            C5H11X1           C2H5O             CH3O2             CH3O2H            
C3H2              C2H3CO            C2H3CHO           C3H5O             C4H7O             C3H3              C2H3O1X2          NXC3H7CHO         
NXC3H7CO          C2H5COCH2         NXC3H7COCH3       NXC3H7COCH2       C7H16             C7H15             C7H15X1           C7H15O2           
C7H14OOH          C7H14O            C7H14OOHO2        NC7KET            
END
REACTIONS
CH3+H(+M)<=>CH4(+M)                      2.138e+15   -0.400      0.00
H2/2.00/ H2O/5.00/ CO/2.00/ CO2/3.00/ 
     LOW  /  3.310e+30   -4.000   2108.03 /
     TROE/       0    1e-15     1e-15        40 /
CH4+H<=>CH3+H2                           1.727e+04    3.000   8223.95
     REV / 6.610e+02    3.000   7744.02 /
CH4+OH<=>CH3+H2O                         1.930e+05    2.400   2106.12
     REV / 3.199e+04    2.400  16780.11 /
CH4+O<=>CH3+OH                           3.150e+12    0.500  10289.91
     REV / 5.296e+10    0.500   7715.11 /
HCO+OH<=>CO+H2O                          1.020e+14    0.000      0.00
     REV / 2.896e+15    0.000 105200.05 /
CO+OH<=>CO2+H                            1.400e+05    1.950  -1347.04
     REV / 1.568e+07    1.950  20989.96 /
H+O2<=>O+OH                              1.970e+14    0.000  16539.91
     REV / 1.555e+13    0.000    424.95 /
O+H2<=>H+OH                              5.080e+04    2.670   6292.07
     REV / 2.231e+04    2.670   4196.94 /
O+H2O<=>2OH                              2.970e+06    2.020  13400.10
     REV / 3.013e+05    2.020  -3849.90 /
OH+H2<=>H+H2O                            2.160e+08    1.510   3429.97
     REV / 9.352e+08    1.510  18580.07 /
HCO+M<=>H+CO+M                           1.860e+17   -1.000  17000.00
H2/2.50/ H2O/12.00/ CO/1.90/ CO2/3.80/ 
     REV / 6.467e+13    0.000   -441.92 /
H2O2+OH<=>H2O+HO2                        1.000e+12    0.000      0.00
     REV / 1.685e+11    0.330  31460.09 /
     DUPLICATE
C2H4+O<=>CH3+HCO                         1.020e+07    1.880    179.02
     REV / 2.851e+08    1.050  31770.08 /
H+C2H4(+M)<=>C2H5(+M)                    1.081e+12    0.450   1821.94
H2/2.00/ H2O/5.00/ CO/2.00/ CO2/3.00/ 
     LOW  /  1.112e+34   -5.000   4447.90 /
     TROE/       1    1e-15        95       200 /
CH3OH(+M)<=>CH3+OH(+M)                   1.900e+16    0.000  91729.92
H2/2.00/ H2O/16.00/ CO/2.00/ CO2/3.00/ 
     LOW  /  2.950e+44   -7.350  95460.09 /
     TROE/   0.414      279      5459    1e+100 /
C2H6+H<=>C2H5+H2                         5.540e+02    3.500   5167.07
     REV / 1.355e-01    4.060   8857.07 /
CH3OH+HO2<=>CH2OH+H2O2                   3.980e+13    0.000  19400.10
     REV / 1.096e+09    1.330  11250.00 /
C2H5+O2<=>C2H4+HO2                       1.220e+30   -5.760  10099.90
     REV / 1.259e+30   -5.630  22299.95 /
C2H6+OH<=>C2H5+H2O                       5.800e+07    1.730   1159.89
     REV / 6.142e+04    2.290  20000.00 /
C2H6+O<=>C2H5+OH                         1.300e+07    2.130   5190.01
     REV / 1.397e+03    2.690   6784.89 /
CH3+HO2<=>CH3O+OH                        1.100e+13    0.000      0.00
     REV / 4.780e+14   -0.350  24549.95 /
CO+HO2<=>CO2+OH                          3.010e+13    0.000  23000.00
     REV / 6.435e+15   -0.330  84609.94 /
2CH3(+M)<=>C2H6(+M)                      9.214e+16   -1.170    635.76
H2/2.00/ H2O/5.00/ CO/2.00/ CO2/3.00/ 
     LOW  /  1.135e+36   -5.246   1705.07 /
     TROE/   0.405     1120      69.6     1e+15 /
H2O+M<=>H+OH+M                           1.837e+27   -3.000 122599.90
H2/2.50/ H2O/12.00/ CO/1.90/ CO2/3.80/ 
     REV / 2.250e+22   -2.000      0.00 /
H+O2(+M)<=>HO2(+M)                       1.475e+12    0.600      0.00
H2/2.50/ H2O/12.00/ CO/1.90/ CO2/3.80/ 
     LOW  /  3.500e+16   -0.410  -1115.92 /
     TROE/     0.5    1e-30     1e+30    1e+100 /
CO+O(+M)<=>CO2(+M)                       1.800e+10    0.000   2384.08
H2/2.50/ H2O/12.00/ CO/1.90/ CO2/3.80/ 
     LOW  /  1.350e+24   -2.788   4190.97 /
!     FCCHECK/       0         0      0         0      1         0
     TROE/       1     1.00 10000000.00 10000000.00 /
CO+O2<=>CO2+O                            1.620e+13    0.000  47700.05
     REV / 1.433e+14    0.000  53919.93 /
HCO+H<=>CO+H2                            7.340e+13    0.000      0.00
     REV / 4.813e+14    0.000  90000.00 /
CH2O+M<=>HCO+H+M                         6.283e+29   -3.570  93200.05

     REV / 2.660e+24   -2.570    427.10 /
CH2O+OH<=>HCO+H2O                        3.430e+09    1.180   -446.94
     REV / 1.186e+09    1.180  29380.02 /
CH2O+H<=>HCO+H2                          9.334e+08    1.500   2976.10
     REV / 7.453e+07    1.500  17650.10 /
CH2O+O<=>HCO+OH                          4.160e+11    0.570   2761.95
     REV / 1.459e+10    0.570  15340.11 /
CH3+OH<=>CH2O+H2                         2.250e+13    0.000   4299.95
     REV / 6.756e+14    0.000  76020.08 /
CH3+O<=>CH2O+H                           8.000e+13    0.000      0.00
     REV / 1.055e+15    0.000  69630.02 /
CH3+O2<=>CH3O+O                          1.995e+18   -1.570  29210.09
     REV / 3.585e+18   -1.590  -1630.98 /
CH2O+CH3<=>HCO+CH4                       3.636e-06    5.420    998.09
     REV / 7.584e-06    5.420  16150.10 /
HCO+CH3<=>CH4+CO                         1.210e+14    0.000      0.00
     REV / 2.073e+16    0.000  90479.92 /
CH3O(+M)<=>CH2O+H(+M)                    5.450e+13    0.000  13500.00

     LOW  /  2.344e+25   -2.700  30599.90 /
!     FCCHECK/       0         0      0         0      1         0
     TROE/       1     1.00 10000000.00 10000000.00 /
C2H4(+M)<=>C2H2+H2(+M)                   1.800e+13    0.000  76000.00

     LOW  /  1.500e+15    0.000  55440.01 /
!     FCCHECK/       0         0      0         0      1         0
     TROE/       1     1.00 10000000.00 10000000.00 /
HO2+O<=>OH+O2                            3.250e+13    0.000      0.00
     REV / 7.857e+14   -0.330  55390.06 /
HCO+HO2<=>CH2O+O2                        2.974e+10    0.330  -3860.90
     REV / 2.050e+13    0.000  38950.05 /
CH3O+O2<=>CH2O+HO2                       5.500e+10    0.000   2424.00
     REV / 1.318e+09    0.350  31390.06 /
CH3+HO2<=>CH4+O2                         3.600e+12    0.000      0.00
     REV / 5.177e+15   -0.330  57960.09 /
HCO+O2<=>CO+HO2                          7.580e+12    0.000    409.89
     REV / 9.029e+11    0.330  32929.97 /
HO2+H<=>2OH                              7.080e+13    0.000    299.95
     REV / 1.352e+14   -0.330  39570.03 /
HO2+H<=>H2+O2                            1.660e+13    0.000    820.03
     REV / 9.138e+14   -0.330  58299.95 /
HO2+OH<=>H2O+O2                          2.890e+13    0.000   -500.00
     REV / 6.888e+15   -0.330  72140.06 /
H2O2+O2<=>2HO2                           5.942e+17   -0.660  53150.10
     REV / 4.200e+14    0.000  11979.92 /
     DUPLICATE
2OH(+M)<=>H2O2(+M)                       1.236e+14   -0.370      0.00
H2/2.50/ H2O/12.00/ CO/1.90/ CO2/3.80/ 
     LOW  /  3.041e+30   -4.630   2049.00 /
     TROE/    0.47      100      2000     1e+15 /
H2O2+H<=>H2O+OH                          2.410e+13    0.000   3969.89
     REV / 7.750e+12    0.000  74700.05 /
CH4+HO2<=>CH3+H2O2                       3.420e+11    0.000  19289.91
     REV / 3.365e+11   -0.330   2501.91 /
CH2O+HO2<=>HCO+H2O2                      5.820e-03    4.530   6556.88
     REV / 1.194e-02    4.200   4920.89 /
C2H2+H(+M)<=>C2H3(+M)                    3.110e+11    0.580   2588.91
H2/2.00/ H2O/5.00/ CO/2.00/ CO2/3.00/ 
     LOW  /  2.254e+40   -7.269   6576.96 /
     TROE/       1    1e-15       675     1e+15 /
C2H4+H<=>C2H3+H2                         8.420e-03    4.620   2582.93
     REV / 5.723e-01    3.790   3233.03 /
C2H4+OH<=>C2H3+H2O                       2.050e+13    0.000   5950.05
     REV / 6.033e+15   -0.830  21760.04 /
C2H2+M<=>C2H+H+M                         4.200e+16    0.000 107000.00

     REV / 7.130e+07    2.080 -28909.89 /
C2H2+O2<=>HCCO+OH                        2.000e+08    1.500  30099.90
     REV / 2.232e+05    1.500  25400.10 /
C2H2+OH<=>C2H+H2O                        3.370e+07    2.000  14000.00
     REV / 4.671e+03    3.080    684.99 /
O+C2H2<=>C2H+OH                          3.160e+15   -0.600  15000.00
     REV / 4.443e+10    0.480 -15559.99 /
C2H+O2<=>HCO+CO                          2.410e+12    0.000      0.00
     REV / 1.328e+16   -1.080 154099.90 /
CH3OH+OH<=>CH2OH+H2O                     7.100e+06    1.800   -596.08
     REV / 3.293e+01    3.460  22719.89 /
CH3OH+H<=>CH3O+H2                        3.600e+12    0.000   6094.89
     REV / 7.467e+12   -0.020   7825.05 /
CH3OH+H<=>CH2OH+H2                       1.440e+13    0.000   6094.89
     REV / 1.543e+07    1.660  14250.00 /
CH3OH+O<=>CH2OH+OH                       3.880e+05    2.500   3080.07
     REV / 1.826e-01    4.160   9142.93 /
CH2OH+O2<=>CH2O+HO2                      6.510e+05    2.270   -770.08
     REV / 3.020e+10    0.940  21770.08 /
CH2OH(+M)<=>CH2O+H(+M)                   2.800e+14   -0.730  32820.03

     LOW  /  6.010e+33   -5.390  36200.05 /
     TROE/    0.96     67.6      1855      7543 /
C2H3+O2<=>C2H2+HO2                       2.120e-06    6.000   9483.99
     REV / 1.114e-07    6.330  17570.03 /
H2O2+O<=>OH+HO2                          9.550e+06    2.000   3969.89
     REV / 1.632e+05    2.330  18179.97 /
C2H2+O<=>HCCO+H                          1.430e+07    2.000   1900.10
     REV / 2.021e+05    2.000  13309.99 /
C2H2+OH<=>CH2CO+H                        2.190e-04    4.500  -1000.00
     REV / 2.161e-03    4.500  19659.89 /
CH2CO+OH<=>HCCO+H2O                      1.000e+13    0.000   2000.00
     REV / 1.412e+11    0.000   9994.98 /
CH2CO+H<=>HCCO+H2                        2.000e+14    0.000   8000.00
     REV / 6.522e+11    0.000    840.11 /
HCCO+OH<=>2HCO                           1.000e+13    0.000      0.00
     REV / 2.411e+14    0.000  40359.94 /
HCCO+H<=>CH2XS+CO                        1.100e+14    0.000      0.00
     REV / 2.046e+12    0.890  27830.07 /
HCCO+O<=>H+2CO                           8.000e+13    0.000      0.00
     REV / 0.000e+00    0.000      0.00 /
C2H6+O2<=>C2H5+HO2                       6.030e+13    0.000  51869.98
     REV / 2.679e+08    0.890  -1922.08 /
C2H6+HO2<=>C2H5+H2O2                     1.320e+13    0.000  20469.89
     REV / 8.298e+10    0.240   7852.06 /
CH3+C2H3<=>CH4+C2H2                      3.920e+11    0.000      0.00
     REV / 2.962e+13    0.000  66049.95 /
CH3OH+CH2O<=>2CH3O                       3.835e+13    0.050  84719.89
     REV / 6.030e+13    0.000      0.00 /
CH2O+CH3O<=>CH3OH+HCO                    1.020e+11    0.000   2979.92
     REV / 3.926e+09    0.020  15919.93 /
C2H3+H<=>C2H2+H2                         2.000e+13    0.000   2500.00
     REV / 1.331e+13    0.000  68080.07 /
CH3OH+OH<=>CH3O+H2O                      1.000e+06    2.100    496.65
     REV / 8.981e+06    2.080  17380.02 /
C2H5+H<=>2CH3                            3.610e+13    0.000      0.00
     REV / 5.446e+16   -1.030  16979.92 /
C2H3+O2<=>CH2O+HCO                       1.700e+29   -5.310   6500.00
     REV / 1.657e+29   -5.310  93049.95 /
C2H6<=>C2H5+H                            2.783e+21   -1.560 103799.95
     REV / 3.610e+13    0.000      0.00 /
C2H4+CH3<=>C2H3+CH4                      6.620e+00    3.700   9500.00
     REV / 1.440e+00    4.020   5472.04 /
CH3CO(+M)<=>CH3+CO(+M)                   3.000e+12    0.000  16719.89

     LOW  /  1.200e+15    0.000  12520.08 /
!     FCCHECK/       0         0      0         0      1         0
     TROE/       1     1.00 10000000.00 10000000.00 /
CH3CHO<=>CH3+HCO                         2.614e+15    0.150  80549.95
     REV / 2.000e+13    0.000      0.00 /
CH3CHO+O2<=>CH3CO+HO2                    3.010e+13    0.000  39150.10
     REV / 8.552e+10    0.320  -1940.01 /
CH3CHO+OH<=>CH3CO+H2O                    2.000e+06    1.800   1299.95
     REV / 1.354e+06    1.790  32849.90 /
CH3CHO+H<=>CH3CO+H2                      1.340e+13    0.000   3299.95
     REV / 2.096e+12   -0.010  19690.01 /
CH3CHO+O<=>CH3CO+OH                      5.940e+12    0.000   1868.07
     REV / 4.080e+11   -0.010  16169.93 /
CH3CHO+HO2<=>CH3CO+H2O2                  3.010e+12    0.000  11919.93
     REV / 1.210e+13   -0.340  12010.04 /
CH3CHO+CH3<=>CH3CO+CH4                   2.608e+06    1.780   5911.09
     REV / 1.066e+07    1.770  22780.11 /
C2H2+CH3<=>C3H4XP+H                      1.211e+17   -1.200  16679.97
     REV / 1.000e+14    0.000   4000.00 /
C3H5XA<=>C2H2+CH3                        2.397e+48   -9.900  82080.07
     REV / 2.610e+46   -9.820  36950.05 /
C3H6<=>C2H3+CH3                          2.730e+62  -13.280 123200.05
     REV / 4.712e+59  -13.190  29539.91 /
C3H6<=>C3H5XA+H                          2.010e+61  -13.260 118500.00
     REV / 4.887e+56  -12.250  28080.07 /
C3H6+O<=>CH2CO+CH3+H                     2.500e+07    1.760     76.00
     REV / 1.000e+00    0.000      0.00 /
C3H6+O<=>C2H5+HCO                        1.580e+07    1.760  -1216.06
     REV / 1.402e+05    1.880  26510.04 /
C3H6+O<=>CH3CHCO+2H                      2.500e+07    1.760     76.00
     REV / 0.000e+00    0.000      0.00 /
C3H6+OH<=>C3H5XA+H2O                     3.120e+06    2.000   -298.04
     REV / 6.194e+06    2.010  31880.02 /
C4H6<=>2C2H3                             4.027e+19   -1.000  98150.10
     REV / 1.260e+13    0.000      0.00 /
C4H6+OH<=>C2H5+CH2CO                     1.000e+12    0.000      0.00
     REV / 3.730e+12    0.000  30020.08 /
C4H6+OH<=>CH2O+C3H5XA                    1.000e+12    0.000      0.00
     REV / 3.501e+06    0.000  71059.99 /
C4H6+OH<=>C2H3+CH3CHO                    1.000e+12    0.000      0.00
     REV / 5.437e+11    0.000  18549.95 /
C4H6+O<=>CH2O+C3H4XA                     1.000e+12    0.000      0.00
     REV / 1.075e+12    0.000  79049.95 /
C2H4+O2<=>C2H3+HO2                       4.000e+13    0.000  58200.05
     REV / 4.939e+13   -0.500   1368.07 /
NXC3H7<=>CH3+C2H4                        2.284e+14   -0.550  28400.10
     REV / 4.100e+11    0.000   7204.11 /
NXC3H7<=>H+C3H6                          2.667e+15   -0.640  36820.03
     REV / 1.000e+13    0.000   2500.00 /
NXC3H7+O2<=>C3H6+HO2                     3.000e+11    0.000   3000.00
     REV / 2.000e+11    0.000  17500.00 /
C3H6+O<=>C3H5XA+OH                       5.240e+11    0.700   5884.08
     REV / 1.055e+11    0.710  20820.03 /
C3H6+H<=>C3H5XA+H2                       1.730e+05    2.500   2492.11
     REV / 7.933e+04    2.510  19520.08 /
C3H6+H<=>C2H4+CH3                        4.830e+33   -5.810  18500.00
     REV / 2.313e+33   -5.900  31619.98 /
C5H9<=>C3H5XA+C2H4                       2.500e+13    0.000  45000.00
     REV / 0.000e+00    0.000      0.00 /
C5H9<=>C4H6+CH3                          1.339e+15   -0.520  38320.03
     REV / 1.750e+11    0.000   7599.90 /
C4H7<=>C4H6+H                            1.200e+14    0.000  49299.95
     REV / 4.000e+13    0.000   1299.95 /
C4H7<=>C2H4+C2H3                         1.000e+11    0.000  37000.00
     REV / 5.000e+10    0.000   7000.00 /
C4H7+CH3<=>C4H6+CH4                      8.000e+12    0.000      0.00
     REV / 7.050e+13    0.000  57280.11 /
C3H5XA+C4H7<=>C3H6+C4H6                  6.310e+12    0.000      0.00
     REV / 1.000e+10    0.000  50000.00 /
C4H7+O2<=>C4H6+HO2                       1.000e+09    0.000      0.00
     REV / 1.000e+11    0.000  17000.00 /
H+C4H7<=>C4H6+H2                         3.160e+13    0.000      0.00
     REV / 1.066e+13    0.000  56809.99 /
C2H5+C4H7<=>C4H6+C2H6                    3.980e+12    0.000      0.00
     REV / 3.211e+12    0.000  49840.11 /
C4H8X1<=>C3H5XA+CH3                      5.000e+15    0.000  71000.00
     REV / 5.000e+12    0.000      0.00 /
C4H8X1<=>C2H3+C2H5                       1.000e+19   -1.000  96770.08
     REV / 9.000e+12    0.000      0.00 /
C4H8X1<=>H+C4H7                          4.107e+18   -1.000  97349.90
     REV / 5.000e+13    0.000      0.00 /
C4H8X1+H<=>C4H7+H2                       5.000e+13    0.000   3900.10
     REV / 4.000e+13    0.000  25200.05 /
C4H8X1+OH<=>C4H7+H2O                     2.250e+13    0.000   2217.02
     REV / 4.772e+12    0.000  26469.89 /
C4H8X1+O2<=>C4H7+HO2                     2.700e+13    0.000  33200.05
     REV / 3.000e+11    0.000      0.00 /
PXC4H9<=>C2H5+C2H4                       7.497e+17   -1.410  29580.07
     REV / 3.300e+11    0.000   7200.05 /
PXC4H9<=>C4H8X1+H                        1.159e+17   -1.170  38159.89
     REV / 1.000e+13    0.000   2900.10 /
CH3COCH2<=>CH2CO+CH3                     1.000e+14    0.000  31000.00
     REV / 1.000e+11    0.000   6000.00 /
C2H5CHO<=>C2H5+HCO                       9.850e+18   -0.730  81710.09
     REV / 1.810e+13    0.000      0.00 /
C5H10X1<=>C2H5+C3H5XA                    9.173e+20   -1.630  73989.96
     REV / 4.000e+12    0.000   -596.08 /
C5H10X1+H<=>C5H9+H2                      2.800e+13    0.000   4000.00
     REV / 1.000e+12    0.000  14000.00 /
C5H10X1+O<=>C5H9+OH                      2.540e+05    2.560  -1130.02
     REV / 7.000e+11    0.000  29900.10 /
C5H10X1+O<=>PXC4H9+HCO                   1.000e+11    0.000      0.00
     REV / 0.000e+00    0.000      0.00 /
C5H10X1+OH<=>C5H9+H2O                    5.120e+06    2.000   -298.04
     REV / 2.060e+07    2.160  34969.89 /
C5H10X1+OH<=>PXC4H9+CH2O                 1.000e+11    0.000      0.00
     REV / 0.000e+00    0.000      0.00 /
C5H10X1+CH3<=>C5H9+CH4                   1.000e+11    0.000   7299.95
     REV / 6.000e+11    0.000  17900.10 /
H2O2+H<=>H2+HO2                          4.820e+13    0.000   7950.05
     REV / 1.875e+12    0.330  24260.04 /
HCO+O<=>CO2+H                            3.000e+13    0.000      0.00
     REV / 9.677e+15    0.000 110200.05 /
C2H4+O<=>CH2CHO+H                        3.390e+06    1.880    179.02
     REV / 9.481e+06    1.790  16049.95 /
C2H5+O<=>CH3CHO+H                        5.000e+13    0.000      0.00
     REV / 5.505e+14    0.110  74390.06 /
C2H3+C2H4<=>C4H6+H                       5.000e+11    0.000   7299.95
     REV / 1.000e+13    0.000   4700.05 /
C5H11X1<=>C2H4+NXC3H7                    7.972e+17   -1.440  29789.91
     REV / 3.300e+11    0.000   7200.05 /
C5H11X1<=>H+C5H10X1                      3.483e+15   -0.660  37880.02
     REV / 1.000e+13    0.000   2900.10 /
C2H5O+M<=>CH3+CH2O+M                     1.350e+38   -6.960  23799.95

     REV / 6.442e+36   -6.990  16849.90 /
H2O2+O2<=>2HO2                           1.839e+14   -0.660  39539.91
     REV / 1.300e+11    0.000  -1629.06 /
     DUPLICATE
C2H3+O2<=>CH2CHO+O                       3.500e+14   -0.610   5260.04
     REV / 2.589e+12    0.120   6458.89 /
CH3O2+M<=>CH3+O2+M                       4.343e+27   -3.420  30469.89

     REV / 5.440e+25   -3.300      0.00 /
CH3O2H<=>CH3O+OH                         6.310e+14    0.000  42299.95
     REV / 1.166e+11    0.600  -1771.03 /
C3H2+O2<=>HCCO+CO+H                      5.000e+13    0.000      0.00
     REV / 0.000e+00    0.000      0.00 /
CH3O2+CH2O<=>CH3O2H+HCO                  1.990e+12    0.000  11659.89
     REV / 8.504e+12   -0.500   7009.08 /
C2H4+CH3O2<=>C2H3+CH3O2H                 2.230e+12    0.000  17190.01
     REV / 8.112e+15   -1.330  -1489.01 /
C2H5+HO2<=>C2H5O+OH                      3.200e+13    0.000      0.00
     REV / 3.075e+15   -0.320  27489.96 /
CH3O2+CH3<=>2CH3O                        7.000e+12    0.000  -1000.00
     REV / 2.971e+16   -0.930  28309.99 /
CH3O2+C2H5<=>CH3O+C2H5O                  7.000e+12    0.000  -1000.00
     REV / 6.569e+16   -0.900  31260.04 /
CH3O2+HO2<=>CH3O2H+O2                    1.750e+10    0.000  -3275.10
     REV / 5.156e+13   -0.830  34880.02 /
H2O2+OH<=>H2O+HO2                        5.800e+14    0.000   9559.99
     REV / 9.771e+13    0.330  41020.08 /
     DUPLICATE
2CH3O2<=>CH2O+CH3OH+O2                   3.110e+14   -1.610  -1050.91
     REV / 0.000e+00    0.000      0.00 /
2CH3O2<=>O2+2CH3O                        1.400e+16   -1.610   1859.94
     REV / 0.000e+00    0.000      0.00 /
C2H6+CH3O2<=>C2H5+CH3O2H                 1.320e+13    0.000  20469.89
     REV / 1.728e+11    0.060   4831.98 /
C2H5O+M<=>CH3CHO+H+M                     1.160e+35   -5.890  25270.08

     REV / 3.063e+30   -4.780   6099.90 /
CH3O2+CH3CHO<=>CH3O2H+CH3CO              3.010e+12    0.000  11919.93
     REV / 2.519e+13   -0.510   8990.92 /
C2H3CO<=>C2H3+CO                         3.043e+14   -0.460  30510.04
     REV / 1.510e+11    0.000   4809.99 /
C2H3CHO+OH<=>C2H3CO+H2O                  9.240e+06    1.500   -962.00
     REV / 2.147e+07    1.480  35510.04 /
C2H3CHO+H<=>C2H3CO+H2                    1.340e+13    0.000   3299.95
     REV / 7.191e+12   -0.020  24619.98 /
C2H3CHO+O<=>C2H3CO+OH                    5.940e+12    0.000   1868.07
     REV / 1.400e+12   -0.020  21090.11 /
C2H3CHO+HO2<=>C2H3CO+H2O2                3.010e+12    0.000  11919.93
     REV / 4.152e+13   -0.350  16940.01 /
C2H3CHO+CH3<=>C2H3CO+CH4                 2.608e+06    1.780   5911.09
     REV / 3.656e+07    1.760  27710.09 /
C2H3CHO+CH3O2<=>C2H3CO+CH3O2H            3.010e+12    0.000  11919.93
     REV / 8.645e+13   -0.530  13919.93 /
C3H5O<=>C2H3CHO+H                        1.000e+14    0.000  29099.90
     REV / 7.714e+11    0.480  17750.00 /
C3H5O<=>C2H3+CH2O                        2.028e+12    0.090  23559.99
     REV / 1.500e+11    0.000  10599.90 /
C3H5O+O2<=>C2H3CHO+HO2                   1.000e+12    0.000   6000.00
     REV / 1.288e+11    0.000  32000.00 /
C3H5XA+HO2<=>C3H5O+OH                    7.000e+12    0.000  -1000.00
     REV / 2.041e+13   -0.160  12260.04 /
C3H5XA+CH3O2<=>C3H5O+CH3O                7.000e+12    0.000  -1000.00
     REV / 1.994e+15   -0.740  17020.08 /
CH3+OH<=>CH2XS+H2O                       2.650e+13    0.000   2185.95
     REV / 3.236e+10    0.890   1211.04 /
CH3OH+O2<=>CH2OH+HO2                     2.050e+13    0.000  44900.10
     REV / 3.989e+05    1.990  -4424.00 /
C4H7O<=>CH3CHO+C2H3                      7.940e+14    0.000  19000.00
     REV / 1.000e+10    0.000  20000.00 /
C4H7O<=>C2H3CHO+CH3                      7.940e+14    0.000  19000.00
     REV / 1.000e+10    0.000  20000.00 /
C4H7+HO2<=>C4H7O+OH                      7.000e+12    0.000  -1000.00
     REV / 1.008e+11    0.260  16890.06 /
C4H7+CH3O2<=>C4H7O+CH3O                  7.000e+12    0.000  -1000.00
     REV / 9.844e+12   -0.320  21650.10 /
C4H8X1+OH<=>NXC3H7+CH2O                  1.000e+12    0.000      0.00
     REV / 1.620e+12    0.000  13229.92 /
C4H8X1+O<=>C3H6+CH2O                     7.230e+05    2.340  -1049.95
     REV / 2.000e+05    2.340  80280.11 /
C4H8X1+O<=>CH3CHO+C2H4                   1.300e+13    0.000    849.90
     REV / 2.070e+12    0.000  85099.90 /
C4H8X1+O<=>CH3CO+C2H5                    1.300e+13    0.000    849.90
     REV / 2.350e+12    0.000  38150.10 /
C4H8X1+OH<=>CH3CHO+C2H5                  1.000e+12    0.000      0.00
     REV / 9.330e+12    0.000  19929.97 /
C4H8X1+OH<=>CH3CO+C2H6                   5.000e+11    0.000      0.00
     REV / 9.830e+12    0.000  32429.97 /
C4H8X1+OH<=>C2H5CHO+CH3                  1.000e+12    0.000      0.00
     REV / 4.950e+10    0.000  16940.01 /
C3H4XA+HO2<=>C3H3+H2O2                   3.000e+13    0.000  14000.00
     REV / 1.551e+16   -1.380  44000.00 /
C3H6+O2<=>C3H5XA+HO2                     4.000e+12    0.000  39900.10
     REV / 3.332e+10    0.340   -555.93 /
C3H5XA+H<=>C3H4XA+H2                     1.810e+13    0.000      0.00
     REV / 1.230e+13    0.120  47229.92 /
C3H5XA+CH3<=>C3H4XA+CH4                  1.000e+11    0.000      0.00
     REV / 4.921e+12    0.050  47780.11 /
C3H5XA+C2H5<=>C2H6+C3H4XA                4.000e+11    0.000      0.00
     REV / 1.802e+12    0.050  40330.07 /
C3H4XA+C3H6<=>2C3H5XA                    8.391e+17   -1.290  33690.01
     REV / 1.000e+12    0.000      0.00 /
C3H5XA+O2<=>C2H3CHO+OH                   2.470e+13   -0.440  23020.08
     REV / 1.903e+14   -0.800  74880.02 /
C3H4XA+M<=>C3H3+H+M                      1.143e+17    0.000  70000.00

     REV / 1.798e+15   -0.380  10609.94 /
C3H4XA<=>C3H4XP                          1.202e+15    0.000  92400.10
     REV / 3.222e+18   -0.990  96590.11 /
C3H4XA+O2<=>C3H3+HO2                     4.000e+13    0.000  39159.89
     REV / 1.175e+11    0.300     38.00 /
C3H3+H<=>C3H2+H2                         5.000e+13    0.000      0.00
     REV / 3.853e+10    0.380   4599.90 /
C3H4XA+OH<=>C3H3+H2O                     1.000e+07    2.000   1000.00
     REV / 7.003e+06    1.970  34520.08 /
C3H5XA<=>C3H4XA+H                        6.663e+15   -0.430  63219.89
     REV / 2.400e+11    0.690   3006.93 /
C3H4XA+H<=>C3H3+H2                       2.000e+07    2.000   5000.00
     REV / 3.235e+06    1.970  23359.94 /
C3H4XP+M<=>C3H3+H+M                      1.143e+17    0.000  70000.00

     REV / 6.708e+11    0.610   6419.93 /
C3H4XP<=>C2H+CH3                         4.200e+16    0.000 100000.00
     REV / 1.018e+12    0.610  -1599.90 /
C3H4XP+O2<=>C3H3+HO2                     2.000e+13    0.000  41599.90
     REV / 2.354e+11    0.140     77.92 /
C3H4XP+OH<=>C3H3+H2O                     1.000e+07    2.000   1000.00
     REV / 2.805e+07    1.810  32119.98 /
C3H4XP+H<=>C3H3+H2                       2.000e+07    2.000   5000.00
     REV / 1.296e+07    1.810  20960.09 /
C3H3+O<=>CH2O+C2H                        1.000e+13    0.000      0.00
     REV / 5.446e+14    0.000  31609.94 /
C3H3+OH<=>C3H2+H2O                       1.000e+13    0.000      0.00
     REV / 1.343e+15    0.000  15679.97 /
C3H3+O2<=>CH2CO+HCO                      3.010e+10    0.000   2869.98
     REV / 4.881e+11    0.000  59469.89 /
C2H3O1X2<=>CH3CO                         8.500e+14    0.000  14000.00
     REV / 1.488e+14   -0.010  47679.97 /
C2H3O1X2<=>CH2CHO                        1.000e+14    0.000  14000.00
     REV / 1.615e+15   -0.410  42460.09 /
CH2CHO<=>CH2CO+H                         3.094e+15   -0.260  50820.03
     REV / 5.000e+13    0.000  12299.95 /
CH2CHO+O2<=>CH2O+CO+OH                   2.000e+13    0.000   4200.05
     REV / 0.000e+00    0.000      0.00 /
C3H5XA+O2<=>C3H4XA+HO2                   2.180e+21   -2.850  30760.04
     REV / 2.690e+19   -2.400  20500.00 /
C3H5XA+O2<=>CH2CHO+CH2O                  7.140e+15   -1.210  21049.95
     REV / 4.944e+16   -1.400  88619.98 /
C3H5XA+O2<=>C2H2+CH2O+OH                 9.720e+29   -5.710  21450.05
     REV / 0.000e+00    0.000      0.00 /
HCCO+O2<=>CO2+HCO                        2.400e+11    0.000   -853.97
     REV / 1.474e+14    0.000 133599.90 /
CH2CO+OH<=>CH2OH+CO                      3.730e+12    0.000  -1012.91
     REV / 9.430e+06    1.660  27489.96 /
CH3+O2<=>CH2O+OH                         7.470e+11    0.000  14250.00
     REV / 7.778e+11    0.000  67770.08 /
NXC3H7CHO+O2<=>NXC3H7CO+HO2              2.000e+13    0.500  42200.05
     REV / 1.000e+07    0.500   4000.00 /
NXC3H7CHO+OH<=>NXC3H7CO+H2O              2.690e+10    0.760   -340.11
     REV / 1.852e+10    0.750  31219.89 /
NXC3H7CHO+H<=>NXC3H7CO+H2                4.000e+13    0.000   4200.05
     REV / 1.800e+13    0.000  24000.00 /
NXC3H7CHO+O<=>NXC3H7CO+OH                5.000e+12    0.000   1789.91
     REV / 1.000e+12    0.000  19000.00 /
NXC3H7CHO+HO2<=>NXC3H7CO+H2O2            2.800e+12    0.000  13599.90
     REV / 1.000e+12    0.000  10000.00 /
NXC3H7CHO+CH3<=>NXC3H7CO+CH4             1.700e+12    0.000   8440.01
     REV / 1.500e+13    0.000  28000.00 /
NXC3H7CHO+CH3O<=>NXC3H7CO+CH3OH          1.150e+11    0.000   1280.11
     REV / 3.000e+11    0.000  18000.00 /
NXC3H7CHO+CH3O2<=>NXC3H7CO+CH3O2H        1.000e+12    0.000   9500.00
     REV / 2.500e+10    0.000  10000.00 /
NXC3H7CO<=>NXC3H7+CO                     5.325e+15   -0.860  13400.10
     REV / 1.500e+11    0.000   4799.95 /
CH3CHCO+OH<=>C2H5+CO2                    1.730e+12    0.000  -1010.04
     REV / 0.000e+00    0.000      0.00 /
CH3CHCO+H<=>C2H5+CO                      4.400e+12    0.000   1458.89
     REV / 0.000e+00    0.000      0.00 /
CH3CHCO+O<=>CH3CHO+CO                    3.200e+12    0.000   -436.90
     REV / 0.000e+00    0.000      0.00 /
C2H5COCH2<=>CH2CO+C2H5                   1.570e+13    0.000  30000.00
     REV / 2.110e+11    0.000   7349.90 /
NXC3H7COCH3+OH<=>NXC3H7COCH2+H2O         5.100e+11    0.000   1191.92
     REV / 9.286e+13   -0.740  27729.92 /
NXC3H7COCH3+HO2<=>NXC3H7COCH2+H2O2       2.380e+04    2.550  14690.01
     REV / 2.572e+07    1.480   9761.95 /
NXC3H7COCH3+CH3O2<=>NXC3H7COCH2+CH3O2H   3.010e+12    0.000  17580.07
     REV / 1.337e+16   -1.250  11929.97 /
NXC3H7COCH2<=>NXC3H7+CH2CO               1.226e+18   -1.400  43450.05
     REV / 1.000e+11    0.000  11599.90 /
CH2XS+CH4<=>2CH3                         4.000e+13    0.000      0.00
     REV / 5.429e+15   -0.890  15650.10 /
CH2XS+C2H6<=>CH3+C2H5                    1.200e+14    0.000      0.00
     REV / 1.041e+14   -0.330  19820.03 /
CH2XS+O2<=>CO+OH+H                       7.000e+13    0.000      0.00
     REV / 0.000e+00    0.000      0.00 /
CH2XS+H2<=>CH3+H                         7.000e+13    0.000      0.00
     REV / 2.482e+17   -0.890  16130.02 /
CH2XS+CO2<=>CH2O+CO                      3.000e+12    0.000      0.00
     REV / 2.852e+15   -0.890  65520.08 /