THERMO ALL
   300.000  1000.000  5000.000
DTBP                    H  18O   2C   8     G   300.000  5000.000 1000.00      1
 2.65093459E+01 4.56008445E-02-1.58798816E-05 2.51026735E-09-1.48288376E-13    2
-5.52074852E+04-1.12096972E+02 2.03910274E+00 7.94083469E-02 2.95190699E-05    3
-9.18291705E-08 3.94549386E-11-4.71097631E+04 2.19761738E+01                   4
H                 L-6-94H   1               G     200.0    6000.0  1000.0      1
          2.5E0          0.0E0          0.0E0          0.0E0          0.0E0    2
     2.547366E4  -4.4668285E-1          2.5E0          0.0E0          0.0E0    3
          0.0E0          0.0E0     2.547366E4  -4.4668285E-1                   4
H2                TPIS78H   2               G     200.0    6000.0  1000.0      1
   2.93286575E0  8.26608026E-4 -1.46402364E-7 1.54100414E-11  -6.888048E-16    2
  -8.13065581E2  -1.02432865E0   2.34433112E0  7.98052075E-3  -1.9478151E-5    3
  2.01572094E-8-7.37611761E-12  -9.17935173E2  6.83010238E-1                   4
O                 L-1-90O   1               G     200.0    6000.0  1000.0      1
   2.54363697E0 -2.73162486E-5  -4.1902952E-9 4.95481845E-12-4.79553694E-16    2
    2.9226012E4   4.92229457E0    3.1682671E0 -3.27931884E-3  6.64306396E-6    3
 -6.12806624E-9 2.11265971E-12   2.91222592E4   2.05193346E0                   4
O2                RUS-89O   2               G     200.0    6000.0  1000.0      1
   3.66096065E0  6.56365811E-4 -1.41149627E-7 2.05797935E-11-1.29913436E-15    2
  -1.21597718E3   3.41536279E0   3.78245636E0 -2.99673416E-3  9.84730201E-6    3
 -9.68129509E-9 3.24372837E-12  -1.06394356E3   3.65767573E0                   4
OH                IU3-03H   1O   1          G     200.0    6000.0  1000.0      1
   2.83853033E0  1.10741289E-3 -2.94000209E-7 4.20698729E-11 -2.4228989E-15    2
   3.69780808E3   5.84494652E0   3.99198424E0 -2.40106655E-3  4.61664033E-6    3
 -3.87916306E-9 1.36319502E-12   3.36889836E3 -1.03998477E-1                   4
H2O               L-5-89H   2O   1          G     200.0    6000.0  1000.0      1
    2.6770389E0   2.9731816E-3  -7.7376889E-7  9.4433514E-11 -4.2689991E-15    2
   -2.9885894E4      6.88255E0    4.1986352E0  -2.0364017E-3   6.5203416E-6    3
  -5.4879269E-9   1.771968E-12   -3.0293726E4  -8.4900901E-1                   4
N2                G-8-02N   2               G     200.0    6000.0  1000.0      1
   2.95257637E0   1.3969004E-3 -4.92631603E-7 7.86010195E-11-4.60755204E-15    2
  -9.23948688E2   5.87188762E0   3.53100528E0 -1.23660988E-4 -5.02999433E-7    3
  2.43530612E-9-1.40881235E-12  -1.04697628E3   2.96747038E0                   4
HO2               T-1-09H   1O   2          G     200.0    5000.0  1000.0      1
   4.17228741E0  1.88117627E-3 -3.46277286E-7 1.94657549E-11 1.76256905E-16    2
   3.10206839E1   2.95767672E0   4.30179807E0 -4.74912097E-3  2.11582905E-5    3
 -2.42763914E-8 9.29225225E-12   2.64018485E2    3.7166622E0                   4
H2O2              T-8-03H   2O   2          G     200.0    6000.0  1000.0      1
   4.57977305E0  4.05326003E-3  -1.2984473E-6   1.982114E-10-1.13968792E-14    2
  -1.80071775E4  6.64970694E-1   4.31515149E0 -8.47390622E-4  1.76404323E-5    3
 -2.26762944E-8 9.08950158E-12  -1.77067437E4   3.27373319E0                   4
CO                RUS-79O   1C   1          G     200.0    6000.0  1000.0      1
    3.0484859E0   1.3517281E-3  -4.8579405E-7  7.8853644E-11 -4.6980746E-15    2
   -1.4266117E4    6.0170977E0    3.5795335E0  -6.1035369E-4   1.0168143E-6    3
  9.0700586E-10 -9.0442449E-13   -1.4344086E4    3.5084093E0                   4
CO2               L-7-88O   2C   1          G     200.0    6000.0  1000.0      1
    4.6365111E0   2.7414569E-3  -9.9589759E-7  1.6038666E-10 -9.1619857E-15    2
   -4.9024904E4   -1.9348955E0     2.356813E0   8.9841299E-3  -7.1220632E-6    3
   2.4573008E-9 -1.4288548E-13   -4.8371971E4    9.9009035E0                   4
CH2O              T-5-11H   2O   1C   1     G     200.0    6000.0  1000.0      1
   3.16952665E0   6.1932056E-3 -2.25056366E-6  3.6597566E-10-2.20149458E-14    2
  -1.45486831E4   6.04207898E0   4.79372312E0 -9.90833322E-3   3.7321999E-5    3
 -3.79285237E-8 1.31772641E-11  -1.43791953E4  6.02798058E-1                   4
HCO               T-5-03H   1O   1C   1     G     200.0    6000.0  1000.0      1
   3.92001542E0  2.52279324E-3 -6.71004164E-7 1.05615948E-10-7.43798261E-15    2
   3.65342928E3   3.58077056E0    4.2375461E0 -3.32075257E-3  1.40030264E-5    3
 -1.34239995E-8 4.37416208E-12   3.87241185E3   3.30834869E0                   4
CH3OH             T06-02H   4O   1C   1     G     200.0    6000.0  1000.0      1
   3.52726795E0  1.03178783E-2 -3.62892944E-6 5.77448016E-10-3.42182632E-14    2
  -2.60028834E4   5.16758693E0   5.65851051E0 -1.62983419E-2  6.91938156E-5    3
 -7.58372926E-8  2.8042755E-11  -2.56119736E4 -8.97330508E-1                   4
CH2OH             IU2-03H   3O   1C   1     G     200.0    6000.0  1000.0      1
    5.0931437E0   5.9476126E-3  -2.0649746E-6 3.23008173E-10-1.88125902E-14    2
   -4.0340964E3  -1.84691493E0   4.47834367E0  -1.3507031E-3   2.7848498E-5    3
  -3.6486906E-8  1.4790745E-11   -3.5007289E3     3.309135E0                   4
CH3O              IU1-03H   3O   1C   1     G     200.0    6000.0  1000.0      1
   4.75779238E0  7.44142474E-3 -2.69705176E-6 4.38090504E-10-2.63537098E-14    2
    3.7811194E2  -1.96680028E0   3.71180502E0 -2.80463306E-3  3.76550971E-5    3
 -4.73072089E-8  1.8658842E-11    1.2956976E3   6.57240864E0                   4
CH3O2H            A-7-05H   4O   2C   1     G     200.0    6000.0  1000.0      1
   7.76538058E0  8.61499712E-3 -2.98006935E-6 4.68638071E-10-2.75339255E-14    2
  -1.82979984E4  -1.43992663E1   2.90540897E0  1.74994735E-2   5.2824363E-6    3
 -2.52827275E-8 1.34368212E-11  -1.68894632E4   1.13741987E1                   4
CH3O2                   H   3O   2C   1     G     300.0    5000.0  1000.0      1
   4.80390863E0  9.95844638E-3 -3.85301026E-6 6.84740497E-10-4.58402955E-14    2
   -7.4713546E2     1.452814E0   3.62497097E0  3.59397933E-3  2.26538097E-5    3
 -2.95391947E-8  1.1197757E-11    7.9304041E1   9.96382194E0                   4
CH4               G-8-99H   4C   1          G     200.0    6000.0  1000.0      1
   1.65326226E0  1.00263099E-2 -3.31661238E-6 5.36483138E-10-3.14696758E-14    2
  -1.00095936E4   9.90506283E0   5.14911468E0 -1.36622009E-2  4.91453921E-5    3
 -4.84246767E-8 1.66603441E-11  -1.02465983E4  -4.63848842E0                   4
CH3               IU0702H   3C   1          G     200.0    6000.0  1000.0      1
    2.9781206E0    5.797852E-3    -1.97558E-6   3.072979E-10 -1.7917416E-14    2
    1.6509513E4    4.7224799E0    3.6571797E0   2.1265979E-3   5.4583883E-6    3
  -6.6181003E-9  2.4657074E-12    1.6422716E4    1.6735354E0                   4
CH2               IU3-03H   2C   1          G     200.0    6000.0  1000.0      1
   3.14631886E0  3.03671259E-3 -9.96474439E-7  1.5048358E-10-8.57335515E-15    2
   4.60412605E4   4.72341711E0   3.71757846E0   1.2739126E-3  2.17347251E-6    3
   -3.488585E-9 1.65208866E-12   4.58723866E4   1.75297945E0                   4
CH                IU3-03H   1C   1          G     200.0    6000.0  1000.0      1
    2.5209369E0   1.7653639E-3   -4.614766E-7  5.9289675E-11 -3.3474501E-15    2
    7.0946769E4    7.4051829E0    3.4897583E0    3.243216E-4  -1.6899751E-6    3
    3.162842E-9 -1.4061803E-12    7.0612646E4    2.0842841E0                   4
C2H6              G-8-88H   6C   2          G     200.0    6000.0  1000.0      1
   4.04666411E0  1.53538802E-2 -5.47039485E-6 8.77826544E-10-5.23167531E-14    2
  -1.24473499E4 -9.68698313E-1   4.29142572E0 -5.50154901E-3  5.99438458E-5    3
 -7.08466469E-8 2.68685836E-11  -1.15222056E4   2.66678994E0                   4
C2H5                    H   5C   2          G   300.000  5000.000 1000.00      1
 3.75307331E+00 1.34742530E-02-5.10726374E-06 8.87454546E-10-5.80781627E-14    2
 1.25647009E+04 3.82795027E+00 3.22778135E+00 4.39028377E-03 2.52963958E-05    3
-3.05667889E-08 1.06017670E-11 1.32290162E+04 9.15846462E+00                   4
C2H4              G-1-00H   4C   2          G     200.0    6000.0  1000.0      1
   3.99182724E0  1.04833908E-2 -3.71721342E-6 5.94628366E-10-3.53630386E-14    2
   4.26865851E3 -2.69081762E-1   3.95920063E0 -7.57051373E-3  5.70989993E-5    3
 -6.91588352E-8  2.6988419E-11   5.08977598E3   4.09730213E0                   4
C2H3              ATCT-AH   3C   2          G     200.0    6000.0  1000.0      1
   4.15026763E0  7.54021341E-3 -2.62997847E-6 4.15974048E-10-2.45407509E-14    2
    3.3856638E4   1.72812235E0   3.36377642E0  2.65765722E-4  2.79620704E-5    3
 -3.72986942E-8 1.51590176E-11   3.44749589E4   7.91510092E0                   4
C2H2              G-1-91H   2C   2          G     200.0    6000.0  1000.0      1
   4.65878489E0  4.88396667E-3 -1.60828888E-6 2.46974544E-10-1.38605959E-14    2
   2.57594042E4  -3.99838194E0  8.08679682E-1  2.33615762E-2 -3.55172234E-5    3
  2.80152958E-8-8.50075165E-12   2.64289808E4   1.39396761E1                   4
CH3CO             IU2-03H   3O   1C   2     G     200.0    6000.0  1000.0      1
    5.3137165E0   9.1737793E-3  -3.3220386E-6  5.3947456E-10 -3.2452368E-14    2
   -3.6450414E3   -1.6757558E0    4.0358705E0   8.7729487E-4    3.071001E-5    3
  -3.9247565E-8  1.5296869E-11   -2.6820738E3    7.8617682E0                   4
CH2CHO            T03-10H   3O   1C   2     G     200.0    6000.0  1000.0      1
   6.53928338E0  7.80238629E-3 -2.76413612E-6 4.42098906E-10 -2.6295429E-14    2
  -1.18858659E3  -8.72091393E0     2.795026E0  1.01099472E-2  1.61750645E-5    3
 -3.10303145E-8 1.39436139E-11   1.62944975E2   1.23646657E1                   4
CH2CO                   H   2O   1C   2     G     300.0    5000.0  1000.0      1
   5.35869367E0  6.95641586E-3 -2.64802637E-6 4.65067592E-10 -3.0864182E-14    2
  -7.90294013E3  -3.98525731E0   1.81422511E0   1.9900859E-2 -2.21416008E-5    3
  1.45028521E-8-3.98877068E-12  -7.05394926E3   1.36079359E1                   4
CH3CHO            L-8-88H   4O   1C   2     G     200.0    6000.0  1000.0      1
    5.4041108E0   1.1723059E-2  -4.2263137E-6  6.8372451E-10 -4.0984863E-14    2
   -2.2593122E4   -3.4807917E0    4.7294595E0  -3.1932858E-3   4.7534921E-5    3
  -5.7458611E-8  2.1931112E-11   -2.1572878E4    4.1030159E0                   4
HCCO              T-4-09H   1O   1C   2     G     200.0    6000.0  1000.0      1
   5.91479333E0   3.7140873E-3  -1.3013701E-6 2.06473345E-10-1.21476759E-14    2
   1.93596301E4  -5.50567269E0   1.87607969E0  2.21205418E-2 -3.58869325E-5    3
  3.05402541E-8-1.01281069E-11    2.0163384E4    1.3696829E1                   4
TC4H9O            T08-04H   9O   1C   4     G     200.0    6000.0  1000.0      1
   1.27371509E1  2.33707342E-2 -8.50516678E-6  1.38519973E-9-8.34398061E-14    2
   -1.6694015E4  -4.53156321E1     2.770571E0  2.68033175E-2   4.1271836E-5    3
 -7.22054739E-8 3.02642276E-11  -1.27079262E4   1.21532856E1                   4
CH3COCH3          ATCT-AH   6O   1C   3     G     200.0    6000.0  1000.0      1
   7.29796974E0  1.75656913E-2 -6.31678065E-6  1.02025553E-9-6.10903592E-14    2
  -2.95368927E4  -1.27591704E1    5.5563892E0 -2.83863547E-3  7.05722951E-5    3
 -8.78130984E-8 3.40290951E-11  -2.78325393E4   2.31960221E0                   4
CH3COCH2          A10-04H   5O   1C   3     G     200.0    6000.0  1000.0      1
   7.54410697E0  1.43443222E-2 -5.08381081E-6 8.13200521E-10-4.83673315E-14    2
  -7.48672286E3  -1.14792587E1   4.70187196E0  5.51653762E-3  4.27505858E-5    3
 -5.94680816E-8 2.40685378E-11  -5.92845491E3    7.1293259E0                   4
CH3COCH2O2              H   5O   3C   3     G   300.000  5000.000 1000.00      1
 9.31592977E+00 1.93168912E-02-7.52471842E-06 1.32910881E-09-8.78572216E-14    2
-2.17411407E+04-1.27301179E+01 8.11717622E+00 1.19941998E-02 2.16358769E-05    3
-3.02289936E-08 1.08310948E-11-2.08955047E+04-3.91739865E+00                   4  
C3KET21                 H   6O   3C   3     G   300.000  5000.000 1000.00      1
 1.08440573E+01 2.14796135E-02-8.73494965E-06 1.59468281E-09-1.08251742E-13    2
-4.06733849E+04-2.36051200E+01 8.25547809E+00 9.91193872E-03 4.14995502E-05    3
-5.38169756E-08 1.92251608E-11-3.90595695E+04-5.63622346E+00                   4
C2H5OH            L-8-88H   6O   1C   2     G     200.0    6000.0  1000.0      1
    6.5624365E0   1.5204222E-2  -5.3896795E-6  8.6225011E-10 -5.1289787E-14    2
   -3.1525621E4   -9.4730202E0    4.8586957E0  -3.7401726E-3   6.9555378E-5    3
  -8.8654796E-8  3.5168835E-11   -2.9996132E4    4.8018545E0                   4
C2H5O             IU2-03H   5O   1C   2     G     200.0    6000.0  1000.0      1
    6.6889982E0   1.3125676E-2   -4.703884E-6  7.5858552E-10 -4.5413306E-14    2
   -4.7457832E3   -9.6983755E0    4.3074268E0   6.4147205E-3   3.1139714E-5    3
  -4.3314083E-8  1.7276184E-11   -3.4027524E3    5.9025837E0                   4
PC2H4OH           T12-01H   5O   1C   2     G     200.0    6000.0  1000.0      1
   7.02824536E0  1.20037746E-2 -4.21306455E-6 6.69471213E-10-3.96371893E-14    2
  -5.92493321E3  -9.40355948E0   4.47893092E0  7.59782301E-3  2.81794908E-5    3
 -4.26953487E-8 1.78878934E-11  -4.71446256E3   6.38921206E0                   4
SC2H4OH           T10-04H   5O   1C   2     G     200.0    6000.0  1000.0      1
   6.35842302E0  1.24356276E-2 -4.33096839E-6 6.84530381E-10-4.03713238E-14    2
  -9.37900432E3  -6.05106112E0    4.2228325E0  5.12174798E-3  3.48386522E-5    3
 -4.91943637E-8 2.01183723E-11  -8.20503939E3     8.016757E0                   4
C2H3OH                  H   4O   1C   2     G   300.000  5000.000 1000.00      1
 7.24210333E+00 9.59032426E-03-3.42566678E-06 5.65665604E-10-3.53981848E-14    2
-1.77606814E+04-1.39084818E+01 4.71817910E-01 2.96175880E-02-2.28857454E-05    3
 6.48517340E-09 2.48194355E-13-1.60539304E+04 2.05177012E+01                   4
C7H16                   H  16C   7          G   300.000  5000.000 1000.00      1
 1.41485653E+01 4.66799298E-02-1.79860446E-05 3.16083460E-09-2.08543828E-13    2
-3.02531083E+04-4.56921344E+01 5.45427241E+00 3.84447789E-02 5.88851652E-05    3
-9.10989609E-08 3.41094856E-11-2.63636336E+04 7.00588338E+00                   4
C3H3              -82489H   3C   3          G     300.0    4000.0  1000.0      1
     8.831047E0    4.357195E-3   -4.109067E-7  -2.368723E-10    4.37652E-14    2
      3.84742E4    -2.177919E1       4.7542E0    1.108028E-2    2.793323E-7    3
   -5.479212E-9   1.949629E-12     3.988883E4    5.854549E-1                   4
C3H4                    H   4C   3          G   300.000  5000.000 1000.00      1
 5.99422217E+00 1.17138472E-02-4.21203689E-06 6.70735262E-10-3.78031119E-14    2
 2.12184415E+04-9.40855193E+00 5.08348270E+00-1.57282029E-03 4.11124024E-05    3
-4.64751830E-08 1.59810828E-11 2.22470707E+04-7.82354049E-01                   4
IC8H18                  H  18C   8          G   300.000  5000.000 1000.00      1
 1.80673887E+01 5.12852142E-02-1.98450555E-05 3.49823977E-09-2.31336757E-13    2
-3.62670366E+04-7.08579461E+01 3.46806528E+00 5.77208039E-02 4.84441163E-05    3
-9.39895789E-08 3.71310439E-11-3.07490867E+04 1.25657765E+01                   4
C3H5                    H   5C   3          G   300.000  5000.000 1000.00      1
 5.97291585E+00 1.49200340E-02-5.71332870E-06 9.98023961E-10-6.54739604E-14    2
 1.76071242E+04-8.19876076E+00 1.34676657E+00 2.03361619E-02 5.79518336E-06    3
-1.97627867E-08 8.39684601E-12 1.91867775E+04 1.73918527E+01                   4
C3H6                    H   6C   3          G   300.000  5000.000 1000.00      1
 4.97548880E+00 1.81886457E-02-6.97537163E-06 1.22075978E-09-8.02476561E-14    2
-3.60271276E+02-2.44326010E+00 2.81652059E+00 1.20009393E-02 2.45415568E-05    3
-3.46141051E-08 1.25843634E-11 8.12701327E+02 1.16784083E+01                   4
NC3H7             120186H   7C   3          G     300.0    5000.0  1000.0      1
     7.978291E0    1.576113E-2   -5.173243E-6   7.443892E-10  -3.824978E-14    2
     7.579402E3    -1.935611E1     1.922537E0    2.478927E-2    1.810249E-6    3
   -1.783266E-8   8.582996E-12     9.713281E3     1.399271E1                   4
IC3H7             120186H   7C   3          G     300.0    5000.0  1000.0      1
     8.063369E0    1.574488E-2   -5.182392E-6   7.477245E-10  -3.854422E-14    2
     5.313871E3    -2.192647E1       1.7133E0    2.542616E-2    1.580808E-6    3
   -1.821286E-8    8.82771E-12     7.535809E3     1.297901E1                   4
IC4H7                   H   7C   4          G   300.000  5000.000 1000.00      1
 8.10320994E+00 2.09580495E-02-8.05116759E-06 1.40930281E-09-9.25840194E-14    2
 1.23243171E+04-1.85730740E+01 2.58799814E+00 2.55615115E-02 1.12297174E-05    3
-2.89020057E-08 1.18495894E-11 1.43002287E+04 1.23989812E+01                   4
C4H8                    H   8C   4          G   300.000  5000.000 1000.00      1
 7.25876470E+00 2.40897289E-02-9.26483601E-06 1.62439065E-09-1.06908486E-13    2
-3.93087800E+03-1.27778280E+01 2.38426803E+00 2.27892091E-02 2.38837035E-05    3
-4.12731422E-08 1.58171014E-11-1.91605334E+03 1.59384274E+01                   4
IC4H8                   H   8C   4          G   300.000  5000.000 1000.00      1
 7.13899500E+00 2.42030433E-02-9.30627889E-06 1.63112964E-09-1.07315135E-13    2
-5.65645270E+03-1.37046776E+01 4.09972874E+00 1.69886413E-02 3.05725248E-05    3
-4.43262066E-08 1.62248857E-11-4.08002610E+03 5.80089208E+00                   4
PC4H9                   H   9C   4          G   300.000  5000.000 1000.00      1
 7.97008350E+00 2.55829732E-02-9.78091335E-06 1.70627908E-09-1.11812930E-13    2
 5.26784657E+03-1.51642118E+01 2.77297139E+00 2.54638731E-02 2.17590597E-05    3
-4.02279182E-08 1.55986235E-11 7.35264642E+03 1.51357371E+01                   4
IC4H9                   H   9C   4          G   300.000  5000.000 1000.00      1
 7.87382600E+00 2.59823020E-02-1.00095010E-05 1.75493976E-09-1.15400613E-13    2
 4.13519577E+03-1.61193523E+01 2.20404741E+00 2.76749535E-02 1.89312159E-05    3
-3.85253343E-08 1.52012836E-11 6.31847463E+03 1.64806677E+01                   4
TC4H9                   H   9C   4          G   300.000  5000.000 1000.00      1
 4.45635992E+00 2.97705670E-02-1.16481844E-05 2.06838995E-09-1.37482846E-13    2
 2.54757895E+03 2.84263325E+00 1.61740716E+00 1.51498287E-02 4.92477471E-05    3
-6.45054470E-08 2.30001137E-11 4.41419696E+03 2.30330766E+01                   4
C5H10                   H  10C   5          G   300.000  5000.000 1000.00      1
 9.45404706E+00 2.99734968E-02-1.15324588E-05 2.02366587E-09-1.33321428E-13    2
-7.52551660E+03-2.27085453E+01 3.09369232E+00 2.83715948E-02 3.14353756E-05    3
-5.36648780E-08 2.05496448E-11-4.90127960E+03 1.47373199E+01                   4
IC3H5CHO                H   6O   1C   4     G   300.000  5000.000 1000.00      1
 1.02707845E+01 1.87075963E-02-7.25810954E-06 1.28024668E-09-8.38252067E-14    2
-1.83181602E+04-2.79377645E+01 3.16769195E+00 2.88993803E-02 4.78509401E-06    3
-2.49691420E-08 1.10336685E-11-1.59865124E+04 1.08856977E+01                   4
NC3H7CHO                H   8O   1C   4     G   300.000  5000.000 1000.00      1
 9.07344059E+00 2.48509916E-02-9.62842657E-06 1.70157888E-09-1.12858591E-13    2
-2.93293240E+04-1.90311418E+01 5.57173429E+00 1.61027912E-02 3.76264125E-05    3
-5.25566728E-08 1.91404607E-11-2.74912315E+04 3.55132338E+00                   4
NC3H7CO                 H   7O   1C   4     G   300.000  5000.000 1000.00      1
 8.92469490E+00 2.23304130E-02-8.68101589E-06 1.53632818E-09-1.01941472E-13    2
-1.05179394E+04-1.66942757E+01 5.93150401E+00 1.43684105E-02 3.31641370E-05    3
-4.62952065E-08 1.68396337E-11-8.92256296E+03 2.72983161E+00                   4
IC3H7CHO                H   8O   1C   4     G   300.000  5000.000 1000.00      1
 9.12408984E+00 2.51505333E-02-9.81554886E-06 1.74133276E-09-1.15730823E-13    2
-3.03892190E+04-2.09999664E+01 3.68931624E+00 2.12616564E-02 3.44597233E-05    3
-5.34034866E-08 2.00774668E-11-2.80208657E+04 1.16266674E+01                   4
TC3H6CHO                H   7O   1C   4     G   300.000  5000.000 1000.00      1
 9.23232668E+00 2.23377311E-02-8.61858038E-06 1.51483714E-09-9.98973382E-14    2
-1.11274811E+04-2.19009183E+01 4.87737664E+00 2.04832346E-02 2.30746094E-05    3
-3.88882528E-08 1.48194493E-11-9.29277625E+03 3.92777239E+00                   4
TC3H6O2CHO              H   7O   3C   4     G   300.000  5000.000 1000.00      1
 1.34186530E+01 2.44565566E-02-9.81595222E-06 1.77578911E-09-1.19736753E-13    2
-2.59820914E+04-3.85737520E+01 6.43804968E+00 2.43789417E-02 3.23005125E-05    3
-5.43018823E-08 2.08996882E-11-2.31859693E+04 2.10363105E+00                   4
TC3H6O2HCO              H   7O   3C   4     G   300.000  5000.000 1000.00      1
 1.54034259E+01 2.26198824E-02-9.26682495E-06 1.70276569E-09-1.16246338E-13    2
-2.62669817E+04-4.93124401E+01 6.84978285E+00 2.43574572E-02 3.68423086E-05    3
-6.15136539E-08 2.38071079E-11-2.29324032E+04 7.31922465E-02                   4
IC3H5CO                 H   5O   1C   4     G   300.000  5000.000 1000.00      1
 1.04716717E+01 1.54566576E-02-5.92689318E-06 1.03496689E-09-6.78123249E-14    2
-2.04944573E+03-2.85464509E+01 3.55348583E+00 2.99742270E-02-7.97048610E-06    3
-1.07578119E-08 6.16917589E-12-8.04985612E+00 8.11859028E+00                   4
IC3H7CO                 H   7O   1C   4     G   300.000  5000.000 1000.00      1
 9.02986261E+00 2.24008744E-02-8.62477093E-06 1.51554374E-09-1.00014009E-13    2
-1.15821159E+04-1.89094422E+01 3.81357285E+00 2.09734287E-02 2.69553048E-05    3
-4.44971115E-08 1.69763010E-11-9.42422773E+03 1.18292918E+01                   4
CH2CCH2OH               H   5O   1C   3     G   300.000  5000.000 1000.00      1
 7.09945330E+00 1.52748507E-02-5.79040573E-06 1.01125568E-09-6.66509320E-14    2
 1.04202567E+04-7.45534683E+00 5.37278353E+00 6.83951890E-03 2.98756083E-05    3
-3.81080979E-08 1.35486902E-11 1.15326912E+04 4.71033942E+00                   4
IC4H7O                  H   7O   1C   4     G   300.000  5000.000 1000.00      1
 9.47121562E+00 2.18634174E-02-8.41315294E-06 1.48101617E-09-9.80112442E-14    2
 2.53483401E+03-2.13087738E+01 5.24827704E+00 1.62872733E-02 3.36529110E-05    3
-4.90309249E-08 1.81469486E-11 4.50281665E+03 4.68143841E+00                   4
IC4H6OH                 H   7O   1C   4     G   300.000  5000.000 1000.00      1
 1.01480001E+01 2.12480586E-02-8.26958851E-06 1.46337298E-09-9.70327180E-14    2
-5.74872998E+03-2.52018123E+01 3.92199969E+00 2.54847040E-02 1.63764781E-05    3
-3.56346945E-08 1.43443232E-11-3.47016207E+03 1.00018799E+01                   4
C7H15-2                 H  15C   7          G   300.000  5000.000 1000.00      1
 1.37687879E+01 4.40059354E-02-1.69698310E-05 2.99248867E-09-1.98326261E-13    2
-6.68814900E+03-3.97990798E+01 7.17141488E+00 2.52585292E-02 7.88566259E-05    3
-1.06028714E-07 3.83411991E-11-3.11182947E+03 3.31365621E+00                   4
C7H15O2-2               H  15O   2C   7     G   300.000  5000.000 1000.00      1
 1.72981904E+01 4.63760903E-02-1.79035825E-05 3.14505029E-09-2.07175637E-13    2
-2.65102533E+04-5.46134007E+01 7.49119121E+00 4.68073769E-02 3.96445531E-05    3
-7.40170837E-08 2.87825354E-11-2.26090180E+04 2.39887905E+00                   4
C7H14OOH2-4             H  15O   2C   7     G   300.000  5000.000 1000.00      1
 1.94430421E+01 4.35594168E-02-1.68520759E-05 2.97925834E-09-1.97851893E-13    2
-2.10029977E+04-6.38922072E+01 9.05619380E+00 3.63186931E-02 6.71911852E-05    3
-1.01837699E-07 3.82034168E-11-1.64862222E+04-1.58463883E+00                   4
C7H14OOH2-4O2           H  15O   4C   7     G   300.000  5000.000 1000.00      1
 2.36260281E+01 4.65006978E-02-1.83875989E-05 3.29409674E-09-2.20606703E-13    2
-4.12991334E+04-8.31551893E+01 1.12461351E+01 4.22865016E-02 6.85343472E-05    3
-1.08387635E-07 4.11332683E-11-3.61364664E+04-9.99592008E+00                   4
NC7KET24                H  14O   3C   7     G   300.000  5000.000 1000.00      1
 1.99497944E+01 4.42474930E-02-1.73338813E-05 3.08039279E-09-2.04848723E-13    2
-5.77508361E+04-6.59477282E+01 9.21028145E+00 4.46384492E-02 4.59303279E-05    3
-8.16628422E-08 3.16227339E-11-5.34745787E+04-3.49401247E+00                   4
AC8H17                  H  17C   8          G   300.000  5000.000 1000.00      1
 1.81015479E+01 4.84654361E-02-1.87658944E-05 3.30970689E-09-2.18962103E-13    2
-1.14261648E+04-6.72665113E+01 3.88472053E+00 5.56857072E-02 4.48742565E-05    3
-8.87640989E-08 3.52112489E-11-6.10044740E+03 1.37332224E+01                   4
AC8H17O2                H  17O   2C   8     G   300.000  5000.000 1000.00      1
 2.09630998E+01 5.10254992E-02-1.97517134E-05 3.47996606E-09-2.29913792E-13    2
-3.02912207E+04-7.65218677E+01 6.91877087E+00 5.77101216E-02 4.44603932E-05    3
-8.88207984E-08 3.52184507E-11-2.50077202E+04 3.60707457E+00                   4
AC8H16OOH-B             H  17O   2C   8     G   300.000  5000.000 1000.00      1
 2.33178619E+01 4.79161368E-02-1.85921010E-05 3.29899332E-09-2.19914789E-13    2
-2.48768861E+04-8.70147171E+01 8.22937021E+00 4.77858689E-02 7.23296529E-05    3
-1.17799744E-07 4.51758282E-11-1.88349760E+04 8.99592166E-01                   4
IC8ETERAB               H  16O   1C   8     G   300.000  5000.000 1000.00      1
 1.88224248E+01 4.90027700E-02-1.90465349E-05 3.36834601E-09-2.23295313E-13    2
-3.61674741E+04-7.41045078E+01-3.06001890E-02 6.91415103E-02 3.36553942E-05    3
-8.70396332E-08 3.61970394E-11-2.96332011E+04 3.06687797E+01                   4
AC8H16OOH-BO2           H  17O   4C   8     G   300.000  5000.000 1000.00      1
 2.68082917E+01 5.14461776E-02-2.02859594E-05 3.62698157E-09-2.42539847E-13    2
-4.48501833E+04-1.02173781E+02 1.02904003E+01 5.66721967E-02 6.31433312E-05    3
-1.12838092E-07 4.40851150E-11-3.85043277E+04-7.27311729E+00                   4
IC8KETAB                H  16O   3C   8     G   300.000  5000.000 1000.00      1
 2.47787335E+01 4.77395235E-02-1.87222850E-05 3.33327079E-09-2.22134818E-13    2
-6.09680688E+04-9.53022852E+01 6.79309142E+00 6.39389172E-02 4.05933860E-05    3
-9.19536842E-08 3.75353975E-11-5.45837817E+04 5.40383449E+00                   4
IC4H9OH                 H  10O   1C   4     G   300.000  5000.000 1000.00      1
 9.73156205E+00 2.93601787E-02-1.13117684E-05 1.98506504E-09-1.30701558E-13    2
-3.91515146E+04-2.38717551E+01 3.06423376E+00 3.03839699E-02 2.56208276E-05    3
-4.82821876E-08 1.88474921E-11-3.65357728E+04 1.47056303E+01                   4
IC4H8OH-1               H   9O   1C   4     G   300.000  5000.000 1000.00      1
 1.04091567E+01 2.58329608E-02-9.92454754E-06 1.73693080E-09-1.14075734E-13    2
-1.74237631E+04-2.60883257E+01 3.69732339E+00 3.13740439E-02 1.37232031E-05    3
-3.53344865E-08 1.44803412E-11-1.50160839E+04 1.16189528E+01                   4
CH3CHCO                 H   4O   1C   3     G   300.000  5000.000 1000.00      1
 8.00095651E+00 1.25226368E-02-4.77369992E-06 8.29903735E-10-5.41868384E-14    2
-1.32255412E+04-1.60787064E+01 2.87166709E+00 2.25077105E-02-3.95318426E-06    3
-1.02491908E-08 5.34860781E-12-1.16730791E+04 1.13001710E+01                   4
IC4H8OH-1O2             H   9O   3C   4     G   300.000  5000.000 1000.00      1
 1.50618740E+01 2.69591069E-02-1.06062915E-05 1.89236095E-09-1.26303734E-13    2
-4.00648753E+04-4.71248162E+01 6.56939838E+00 3.04866468E-02 2.97659423E-05    3
-5.54648241E-08 2.18235832E-11-3.68442620E+04 1.45706012E+00                   4
IC4H7OH-1OOH-3          H   9O   3C   4     G   300.000  5000.000 1000.00      1
 1.62977883E+01 2.51262813E-02-9.69872222E-06 1.70469925E-09-1.12392844E-13    2
-3.24439265E+04-5.05358310E+01 6.17454477E+00 3.96931886E-02 7.34001706E-06    3
-3.55805271E-08 1.56904305E-11-2.91229745E+04 4.78448413E+00                   4
IC4H7OH-1OOH-3O2        H   9O   5C   4     G   300.000  5000.000 1000.00      1
 1.95414184E+01 2.72470859E-02-1.06435834E-05 1.88699141E-09-1.25232511E-13    2
-5.20843010E+04-6.21892864E+01 9.23785212E+00 4.00720817E-02 1.27028274E-05    3
-4.20665520E-08 1.79604707E-11-4.86041243E+04-5.38321747E+00                   4
IC4OHKET1-3             H   8O   4C   4     G   300.000  5000.000 1000.00      1
 1.65951963E+01 2.60032787E-02-1.03761306E-05 1.87057537E-09-1.25848766E-13    2
-7.59534479E+04-5.50043992E+01 5.91382685E+00 3.55519506E-02 2.50660705E-05    3
-5.49343646E-08 2.23695877E-11-7.21583337E+04 4.82123544E+00                   4
IC4H8OH-3               H   9O   1C   4     G   300.000  5000.000 1000.00      1
 9.76475475E+00 2.65508513E-02-1.02391743E-05 1.79800416E-09-1.18439609E-13    2
-1.43104813E+04-2.13741477E+01 3.47866260E+00 2.83766046E-02 2.20001189E-05    3
-4.30134733E-08 1.69140836E-11-1.18873321E+04 1.47822671E+01                   4
IC4H8OH-3O2             H   9O   3C   4     G   300.000  5000.000 1000.00      1
 1.26443687E+01 2.88492187E-02-1.12058637E-05 1.97788949E-09-1.30794272E-13    2
-3.40424145E+04-3.09621896E+01 6.97197938E+00 2.65888582E-02 2.96095535E-05    3
-5.01823063E-08 1.91467341E-11-3.16604408E+04 2.64128909E+00                   4
IC4H7OH-3OOH-1          H   9O   3C   4     G   300.000  5000.000 1000.00      1
 1.51226659E+01 2.63320996E-02-1.01943337E-05 1.79608196E-09-1.18652438E-13    2
-2.99093221E+04-4.36367904E+01 6.98076832E+00 3.36195043E-02 1.67948378E-05    3
-4.14768848E-08 1.70196357E-11-2.70169333E+04 1.96320550E+00                   4
IC4KETII                H   8O   3C   4     G   300.000  5000.000 1000.00      1
 1.39513611E+01 2.64394666E-02-1.06150409E-05 1.92030522E-09-1.29457290E-13    2
-4.19078615E+04-3.95597607E+01 5.66689585E+00 2.95147581E-02 2.98658762E-05    3
-5.51295423E-08 2.16486470E-11-3.87478400E+04 7.92363762E+00                   4
C2H5CO            A10-04H   5O   1C   3     G     200.0    6000.0  1000.0      1