"""

 CRECK MODELING GROUP (POLITECNICO DI MILANO)
 HTTP://CRECKMODELING.CHEM.POLIMI.IT/

 POLIMI_TOT_1412 KINETIC MECHANISM
 VERSION 1412, DECEMBER 2014
 DETAILED AND LUMPED MECHANISM OF PYROLYSIS, PARTIAL OXIDATION AND COMBUSTION OF HYDROCARBON AND OXYGENATED FUELS.
 HIGH AND LOW TEMPERATURE KINETIC SCHEME: 451 SPECIES 17848 REACTIONS.

 REFERENCES

E. RANZI, A. FRASSOLDATI, R. GRANA, A. CUOCI, T. FARAVELLI, A.P. KELLEY, C.K. LAW,
HIERARCHICAL AND COMPARATIVE KINETIC MODELING OF LAMINAR FLAME SPEEDS OF HYDROCARBON AND OXYGENATED FUELS,
PROGRESS IN ENERGY AND COMBUSTION SCIENCE, 38 (4), PP. 468-501 (2012), DOI: 10.1016/J.PECS.2012.03.004



"""

units(length='cm', time='s', quantity='mol', act_energy='cal/mol')

ideal_gas(name='gas',
          elements="C H O N Ar He",
          species="""HE              AR              N2
                     O2              H2              H2O
                     H2O2            CO              CO2
                     CH2O            HCOOH           HCO3H
                     CH4             CH3OH           CH3OOH
                     C2H2            CH2CO           C2H2O2
                     C2H4            C2H4O           CH3CHO
                     CH3COOH         C2H4O2          CH3OCHO
                     CH3CO3H         C2-OQOOH        DME-OQOOH
                     C2H6            C2H5OH          CH3OCH3
                     C2H5OOH         GLIET           C3H2
                     PC3H4           AC3H4           C2H3CHO
                     C3H4O2          ETC3H4O2        C3H4O3
                     KEA3G2          KEA3B3          C3H6
                     C3H6O           CH3COCH3        C2H5CHO
                     C3H5OH          C3H5OOH         ACETOL
                     C3H6O2          C3-OQOOH        C3H8
                     IC3H7OH         NC3H7OH         C3H7OOH
                     GLYCEROL        C4H2            C4H4
                     CH2CCHCHO       C4H4O           C4H6
                     C3H5CHO         IC3H5CHO        C4H6O2
                     MACRIL          IC4H8           NC4H8
                     C4H7OH          IC3H7CHO        C3H7CHO
                     C4H8O           MEK             IC4-OQOOH
                     NC4-OQOOH       KEHYBU1         IC4H10
                     NC4H10          N1C4H9OH        TC4H9OH
                     N2C4H9OH        IC4H9OH         C4H9OOH
                     CYC5H4O         C5H4O2          CYC5H6
                     MEFU2           C5H8            CYC5H8
                     C5H8O           MCROT           ETMB583
                     C5EN-OQOOH-35   C5H8O4          KEHYMB
                     IC5H10          NC5H10          C4H9CHO
                     NEOC5H10-O      NC5H10-O        MTBE-O
                     MB              NEOC5-OQOOH     NC5-OQOOH
                     MTBE-OQOOH      NEOC5H12        NC5H12
                     MTBE            NC5H11OOH       C6H2
                     C6H4            BENZYNE         C6H4O2
                     LC6H6           C6H6            C6H5OH
                     C6H6O3          CYC6H8          MCPTD
                     DMF             C6H8O4          CYC6H10
                     CYC6H10-O-14    CYC6H10-O-13    C5H9CHO
                     CYC6H10-ONE     CYC6H10-O-12    ALDEST
                     CYC6-OQOOH-4    CYC6-OQOOH-3    CYC6-OQOOH-2
                     C6H10O5         CYC6H12         NC6H12
                     ETBE            TAME            DIPE
                     C6H5CHO         C7H8            C6H5CH2OH
                     CRESOL          C6H5OCH3        CH3CH3-C5H6
                     C7DIONE         MCYC6-OQOOH     MCYC6
                     NC7H14          NC7H14O         C7KETONE
                     NC7H13OOH       NC7-OQOOH       C7H16
                     NC7H15OOH       C8H2            C6H5C2H
                     BZFUR           C6H5C2H3        XYLENE
                     C6H5C2H5        C8H10O3         UME7
                     IC8H16          IC8H16O         IC8-OQOOH
                     IC8H18          INDENE          C9H10O2
                     TMBENZ          NPBENZ          C7H15COCHO
                     C10H8           C10H7OH         C10H10
                     TETRALIN        DCYC5           KHDECA
                     DECALIN         ODECAL          NC10H20
                     NC10MOOH        NC10-OQOOH      NC10H22
                     C10H7CHO        C10H7CH3        CH3C10H6OH
                     C11H12O4        UME10           ETEROMD
                     MDKETO          MD              C12H8
                     DIBZFUR         BIPHENYL        DIFENET
                     C12H18          C12H22          NC12-OQOOH
                     C12H26          FLUORENE        C6H5CH2C6H5
                     ALDINS          U2ME12          C14H10
                     C6H5C2H4C6H5    C16H10          IC16-OQOOH
                     NC16-OQOOH      NC16H34         IC16H34
                     UME16           ETEROMPA        MPA
                     KHMLIN1         MLIN1           MLINO
                     MEOLE           MSTEAKETO       MSTEA
                     BIN1B           BIN1A           O
                     H               OH              HO2
                     C               CH              HCO
                     HCO3            CH2S            CH2
                     CH3             CH2OH           CH3O
                     CH3OO           C2H             HCCO
                     C2H3            CH3CO           CH2CHO
                     CH3OCO          CH3CO3          C2H5
                     C2H4OH          CH3CHOH         CH3OCH2
                     C2H5OO          C2-QOOH         DME-OO
                     DME-QOOH        C2-OOQOOH       DME-OOQOOH
                     C3H3            CHCHCH3         CH2CCH3
                     CH2CHCH2        RALD3B          CH3COCH2
                     RALD3G          C3H5OO          CH2CHOOHCHO
                     CH2OOHCHCHO     CH2OOCH2CHO     CH3CHOOCHO
                     CH2OOHCHOOCHO   CH2OOCHOOHCHO   NC3H7
                     IC3H7           CH2CH2CH2OH     CH3COHCH3
                     NC3H7O          CH2CHOHCH3      CH3CH2CHOH
                     CH3CHCH2OH      CH3CH2CH2O      NC3-QOOH
                     IC3-QOOH        IC3H7OO         NC3H7OO
                     NC3-OOQOOH      IC3-OOQOOH      C4H3
                     C4H3O           C4H5            CH2C3H5
                     SC4H7           IC4H7           RMP3
                     IC4H9P          IC4H9T          NC4H9S
                     NC4H9P          RTC4H9O         CH3CH2COHCH3
                     CH3CH2CHOCH3    CH3CH2CHCH2OH   CH3CHCH2OCH3
                     CH3CCH2OHCH3    CH3CHCH2CH2OH   CH3CH2CH2CHOH
                     CH3CH2CH2CH2O   CH2CHCH2OHCH3   RTC4H8OH
                     CH3CHCH3CHOH    CH3CH2CHOHCH2   CH3CHCHOHCH3
                     CH2CH2CH2CH2OH  CH2CH2CHOHCH3   IC4H9P-OO
                     IC4T-QOOH       NC4H9-OO        NC4-QOOH
                     IC4P-QOOH       IC4H9T-OO       RBU1OOX
                     QBU1OOX         NC4-OOQOOH      IC4T-OOQOOH
                     IC4P-OOQOOH     ZBU1OOX         CYC5H5
                     C5H5O           C5H7            RMCROTA
                     NC5H9-3         ERC4H8CHO       C5EN-OO
                     C5EN-QOOH       RMBX            C5EN-OOQOOH-35
                     QMBOOX          RMBOOX          ZMBOOX
                     NEOC5H11        NC5H11          RMTBE
                     NC5-QOOH        NC5H12OO        NEOC5-QOOH
                     NEOC5H11-OO     MTBE-QOOH       MTBE-OO
                     NEOC5-OOQOOH    NC5-OOQOOH      MTBE-OOQOOH
                     C6H3            C6H5            LC6H5
                     C6H5O           DMF-3YL         CYC6H9
                     RALDEST         CYC6H11         CYC6-QOOH-4
                     CYC6-QOOH-2     CYC6-QOOH-3     CYC6-OO
                     CYC6-OOQOOH-4   CYC6-OOQOOH-3   CYC6-OOQOOH-2
                     RDIPE           C7H7            C6H4CH3
                     RCRESOLO        RCRESOLC        RMCYC6
                     NC7H13          MCYC6T-QOOH     RMCYC6-OO
                     MCYC6-QOOH      MCYC6T-OOQOOH   MCYC6-OOQOOH
                     NC7H15          NC7H15-OO       NC7-QOOH
                     NC7-OOQOOH      C6H4C2H         C6H5C2H2
                     C8H9            RXYLENE         RUME7
                     RME7            IC8H17          IC8T-QOOH
                     IC8-QOOH        IC8H17-OO       IC8-OOQOOH
                     INDENYL         RC9H11          C10H7
                     C10H7O          RTETRALIN       RTETRAOO
                     RODECA          RDECALIN        QDECOOH
                     RDECOO          ZDECA           NC10H19
                     NC10H21         NC10H21-OO      NC10-QOOH
                     NC10-OOQOOH     C10H7CH2        C10H6CH3
                     CH3C10H6O       RUME10          RMDX
                     QMDOOH          RMDOOX          ZMDOOH
                     C12H7           RBIPHENYL       NC12H25
                     NC12H25-OO      NC12-QOOH       NC12-OOQOOH
                     C14H9           C16H9           IC16H33
                     NC16H33         IC16H33-OO      NC16-QOOH
                     IC16-QOOH       NC16H33-OO      IC16T-QOOH
                     IC16T-OOQOOH    NC16-OOQOOH     IC16-OOQOOH
                     RUME16          RMPAX           RMPAOOX
                     QMPAOOH         ZMPAOOH         RMLIN1A
                     RMLIN1X         QMLIN1OOX       RMLIN1OOX
                     ZMLIN1OOX       RMLINA          RMLINX
                     QMLINOOX        RMLINOOX        ZMLINOOX
                     RMEOLEA         RMEOLES         QMEOLEOOH
                     RMEOLEOOX       ZMEOLEOOX       RSTEAX
                     QMSTEAOOH       RMSTEAOOX       ZMSTEAOOH""",
          reactions='all',
          transport='Mix',
          initial_state=state(temperature=300.0, pressure=OneAtm))

#-------------------------------------------------------------------------------
# Species data
#-------------------------------------------------------------------------------

species(name='HE',
        atoms='He:1',
        thermo=(NASA([300.00, 1490.00],
                     [ 2.50000000E+00, -4.07455160E-15,  5.98527266E-18,
                      -3.43074982E-21,  6.74775716E-25, -7.45375000E+02,
                       9.28723974E-01]),
                NASA([1490.00, 3500.00],
                     [ 2.50000000E+00,  7.40336223E-15, -5.56967416E-18,
                       1.73924876E-21, -1.92673709E-25, -7.45375000E+02,
                       9.28723974E-01])),
        transport=gas_transport(geom='atom',
                                diam=2.576,
                                well_depth=10.2))

species(name='AR',
        atoms='Ar:1',
        thermo=(NASA([300.00, 1490.00],
                     [ 2.50000000E+00, -4.07455160E-15,  5.98527266E-18,
                      -3.43074982E-21,  6.74775716E-25, -7.45375000E+02,
                       4.36600000E+00]),
                NASA([1490.00, 3500.00],
                     [ 2.50000000E+00,  7.40336223E-15, -5.56967416E-18,
                       1.73924876E-21, -1.92673709E-25, -7.45375000E+02,
                       4.36600000E+00])),
        transport=gas_transport(geom='atom',
                                diam=3.33,
                                well_depth=136.5))

species(name='N2',
        atoms='N:2',
        thermo=(NASA([300.00, 1050.00],
                     [ 3.85321336E+00, -2.44053349E-03,  5.35160392E-06,
                      -3.75608397E-09,  9.22684330E-13, -1.07969550E+03,
                       1.60217419E+00]),
                NASA([1050.00, 3500.00],
                     [ 2.71287897E+00,  1.90359754E-03, -8.54297556E-07,
                       1.84170938E-10, -1.54715988E-14, -8.40225273E+02,
                       7.15926558E+00])),
        transport=gas_transport(geom='linear',
                                diam=3.621,
                                well_depth=97.53,
                                polar=1.76,
                                rot_relax=4.0))

species(name='O2',
        atoms='O:2',
        thermo=(NASA([300.00, 760.00],
                     [ 3.46035080E+00, -8.85011121E-04,  5.15281056E-06,
                      -5.40712413E-09,  1.87809542E-12, -1.02942573E+03,
                       5.02236126E+00]),
                NASA([760.00, 3500.00],
                     [ 2.81750648E+00,  2.49838007E-03, -1.52493521E-06,
                       4.50547608E-10, -4.87702792E-14, -9.31713392E+02,
                       7.94729337E+00])),
        transport=gas_transport(geom='linear',
                                diam=3.458,
                                well_depth=107.4,
                                polar=1.6,
                                rot_relax=3.8))

species(name='H2',
        atoms='H:2',
        thermo=(NASA([300.00, 750.00],
                     [ 3.08866003E+00,  2.53968841E-03, -5.72992027E-06,
                       5.71701843E-09, -1.98865970E-12, -9.92148124E+02,
                      -2.43823459E+00]),
                NASA([750.00, 3500.00],
                     [ 3.73110902E+00, -8.86706214E-04,  1.12286897E-06,
                      -3.74349782E-10,  4.17963674E-14, -1.08851547E+03,
                      -5.35285855E+00])),
        transport=gas_transport(geom='linear',
                                diam=2.92,
                                well_depth=38.0,
                                polar=0.79,
                                rot_relax=280.0))

species(name='H2O',
        atoms='H:2 O:1',
        thermo=(NASA([300.00, 1590.00],
                     [ 4.03530937E+00, -6.87559833E-04,  2.86629214E-06,
                      -1.50552360E-09,  2.55006790E-13, -3.02783278E+04,
                      -1.99201641E-01]),
                NASA([1590.00, 3500.00],
                     [ 2.30940463E+00,  3.65433887E-03, -1.22983871E-06,
                       2.11931683E-10, -1.50333493E-14, -2.97294901E+04,
                       8.92765177E+00])),
        transport=gas_transport(geom='nonlinear',
                                diam=2.605,
                                well_depth=572.4,
                                dipole=1.844,
                                rot_relax=4.0))

species(name='H2O2',
        atoms='H:2 O:2',
        thermo=(NASA([300.00, 1180.00],
                     [ 2.91896355E+00,  9.92397296E-03, -8.56537418E-06,
                       4.23738723E-09, -8.61930485E-13, -1.76139998E+04,
                       8.76340177E+00]),
                NASA([1180.00, 3500.00],
                     [ 4.56163072E+00,  4.35560969E-03, -1.48694629E-06,
                       2.38275424E-10, -1.46610352E-14, -1.80016693E+04,
                       5.66597119E-01])),
        transport=gas_transport(geom='nonlinear',
                                diam=3.458,
                                well_depth=107.4,
                                rot_relax=3.8))

species(name='CO',
        atoms='C:1 O:1',
        thermo=(NASA([300.00, 1000.00],
                     [ 3.81890943E+00, -2.40697343E-03,  5.75226966E-06,
                      -4.28629830E-09,  1.11070419E-12, -1.43689533E+04,
                       2.49992060E+00]),
                NASA([1000.00, 3500.00],
                     [ 2.68595014E+00,  2.12486373E-03, -1.04548608E-06,
                       2.45538864E-10, -2.22550981E-14, -1.41423615E+04,
                       7.96579426E+00])),
        transport=gas_transport(geom='linear',
                                diam=3.65,
                                well_depth=98.1,
                                polar=1.95,
                                rot_relax=1.8))

species(name='CO2',
        atoms='C:1 O:2',
        thermo=(NASA([300.00, 1620.00],
                     [ 2.44892797E+00,  8.54596135E-03, -6.60570102E-06,
                       2.52769046E-09, -3.80099332E-13, -4.83922906E+04,
                       9.47557732E+00]),
                NASA([1620.00, 3500.00],
                     [ 5.07830985E+00,  2.05366041E-03, -5.94311265E-07,
                       5.38675131E-11,  1.66346855E-15, -4.92442103E+04,
                      -4.47815290E+00])),
        transport=gas_transport(geom='linear',
                                diam=3.763,
                                well_depth=244.0,
                                polar=2.65,
                                rot_relax=2.1))

species(name='CH2O',
        atoms='C:1 H:2 O:1',
        thermo=(NASA([300.00, 930.00],
                     [ 3.13463322E+00,  1.80037482E-03,  8.80336316E-06,
                      -8.92465077E-09,  2.63639286E-12, -1.50171301E+04,
                       7.57920580E+00]),
                NASA([930.00, 3500.00],
                     [ 1.06639253E+00,  1.06960337E-02, -5.54447373E-06,
                       1.36053696E-09, -1.28442554E-13, -1.46324373E+04,
                       1.74071779E+01])),
        transport=gas_transport(geom='nonlinear',
                                diam=3.59,
                                well_depth=498.0,
                                rot_relax=2.0))

species(name='HCOOH',
        atoms='C:1 H:2 O:2',
        thermo=(NASA([300.00, 1800.00],
                     [ 1.36256505E+00,  1.66938805E-02, -1.11828949E-05,
                       3.66178037E-09, -4.73930912E-13, -4.64539011E+04,
                       1.76174180E+01]),
                NASA([1800.00, 3500.00],
                     [ 5.80573302E+00,  6.82017393E-03, -2.95480608E-06,
                       6.14340060E-10, -5.06753135E-14, -4.80534416E+04,
                      -6.42993389E+00])),
        transport=gas_transport(geom='nonlinear',
                                diam=3.855,
                                well_depth=470.6,
                                rot_relax=1.0))

species(name='HCO3H',
        atoms='C:1 H:2 O:3',
        thermo=(NASA([300.00, 1750.00],
                     [ 2.47434199E+00,  2.16898607E-02, -1.63512235E-05,
                       5.87745807E-09, -8.18701091E-13, -3.54892796E+04,
                       1.72835470E+01]),
                NASA([1750.00, 3500.00],
                     [ 1.00230668E+01,  4.43563253E-03, -1.56188514E-06,
                       2.43424395E-10, -1.38391379E-14, -3.81313332E+04,
                      -2.33590722E+01])),
        transport=gas_transport(geom='nonlinear',
                                diam=4.12,
                                well_depth=443.2,
                                rot_relax=1.0))

species(name='CH4',
        atoms='C:1 H:4',
        thermo=(NASA([300.00, 1070.00],
                     [ 2.85765313E+00,  2.53571100E-03,  9.67916346E-06,
                      -8.69880870E-09,  2.25599770E-12, -1.00357904E+04,
                       4.98969392E+00]),
                NASA([1070.00, 3500.00],
                     [-2.82321416E-01,  1.42739336E-02, -6.77628877E-06,
                       1.55380951E-09, -1.39473841E-13, -9.36383584E+03,
                       2.03507024E+01])),
        transport=gas_transport(geom='nonlinear',
                                diam=3.746,
                                well_depth=141.4,
                                polar=2.6,
                                rot_relax=13.0))

species(name='CH3OH',
        atoms='C:1 H:4 O:1',
        thermo=(NASA([300.00, 700.00],
                     [ 2.88895785E+00,  4.85657077E-03,  1.59348814E-05,
                      -2.08247943E-08,  7.94986176E-12, -2.53716460E+04,
                       1.03674509E+01]),
                NASA([700.00, 3500.00],
                     [ 9.34193000E-01,  1.60266556E-02, -8.00101466E-06,
                       1.97129714E-09, -1.91599484E-13, -2.50979789E+04,
                       1.91008457E+01])),
        transport=gas_transport(geom='nonlinear',
                                diam=3.626,
                                well_depth=481.8,
                                rot_relax=1.0))

species(name='CH3OOH',
        atoms='C:1 H:4 O:2',
        thermo=(NASA([300.00, 1800.00],
                     [ 5.93430876E+00,  1.04356674E-02, -3.01974623E-06,
                       1.41830001E-10,  3.83264515E-14, -1.81342471E+04,
                      -2.80822136E+00]),
                NASA([1800.00, 3500.00],
                     [ 5.50146514E+00,  1.13975421E-02, -3.82130848E-06,
                       4.38704910E-10, -2.90617476E-15, -1.79784234E+04,
                      -4.65581411E-01])),
        transport=gas_transport(geom='nonlinear',
                                diam=3.626,
                                well_depth=481.8,
                                rot_relax=1.0))

species(name='C2H2',
        atoms='C:2 H:2',
        thermo=(NASA([300.00, 970.00],
                     [ 1.83812159E+00,  1.64533925E-02, -1.93408005E-05,
                       1.24068047E-08, -3.14627391E-12,  2.61425043E+04,
                       9.54239252E+00]),
                NASA([970.00, 3500.00],
                     [ 4.61193612E+00,  5.01498204E-03, -1.65253694E-06,
                       2.49922532E-10, -1.30568636E-14,  2.56043843E+04,
                      -3.75517096E+00])),
        transport=gas_transport(geom='linear',
                                diam=4.1,
                                well_depth=209.0,
                                rot_relax=2.5))

species(name='CH2CO',
        atoms='C:2 H:2 O:1',
        thermo=(NASA([300.00, 1410.00],
                     [ 2.49197065E+00,  1.58706066E-02, -1.26271528E-05,
                       5.33991909E-09, -9.11597189E-13, -7.58486732E+03,
                       1.06694385E+01]),
                NASA([1410.00, 3500.00],
                     [ 6.03578795E+00,  5.81722422E-03, -1.93206512E-06,
                       2.83140054E-10, -1.50051612E-14, -8.58422380E+03,
                      -7.64505060E+00])),
        transport=gas_transport(geom='nonlinear',
                                diam=3.97,
                                well_depth=436.0,
                                rot_relax=2.0))

species(name='C2H2O2',
        atoms='C:2 H:2 O:2',
        thermo=(NASA([300.00, 1700.00],
                     [ 1.89947966E+00,  2.35363962E-02, -1.81616014E-05,
                       6.72307419E-09, -9.65107677E-13, -2.69305506E+04,
                       1.58338747E+01]),
                NASA([1700.00, 3500.00],
                     [ 9.83116579E+00,  4.87360532E-03, -1.69443300E-06,
                       2.65361078E-10, -1.54439841E-14, -2.96273239E+04,
                      -2.66407027E+01])),
        transport=gas_transport(geom='nonlinear',
                                diam=4.41,
                                well_depth=470.6,
                                rot_relax=1.5))

species(name='C2H4',
        atoms='C:2 H:4',
        thermo=(NASA([300.00, 1800.00],
                     [ 2.66161697E-01,  1.94272328E-02, -1.14541158E-05,
                       3.49691054E-09, -4.39228267E-13,  5.45399123E+03,
                       1.95264329E+01]),
                NASA([1800.00, 3500.00],
                     [ 4.49333672E+00,  1.00335105E-02, -3.62601388E-06,
                       5.97613541E-10, -3.65481279E-14,  3.93220822E+03,
                      -3.35192020E+00])),
        transport=gas_transport(geom='nonlinear',
                                diam=3.971,
                                well_depth=280.8,
                                rot_relax=1.5))

species(name='C2H4O',
        atoms='C:2 H:4 O:1',
        thermo=(NASA([300.00, 1440.00],
                     [-1.76683146E+00,  3.11247960E-02, -2.31168173E-05,
                       9.09246001E-09, -1.49102113E-12, -7.02731487E+03,
                       3.09356489E+01]),
                NASA([1440.00, 3500.00],
                     [ 4.77217531E+00,  1.29608883E-02, -4.19608017E-06,
                       3.32859470E-10,  2.97428516E-14, -8.91054882E+03,
                      -2.99568268E+00])),
        transport=gas_transport(geom='nonlinear',
                                diam=4.53,
                                well_depth=362.6,
                                rot_relax=1.5))

species(name='CH3CHO',
        atoms='C:2 H:4 O:1',
        thermo=(NASA([300.00, 1800.00],
                     [ 9.91751377E-01,  2.23500313E-02, -1.35975169E-05,
                       4.27666307E-09, -5.48877497E-13, -2.10792434E+04,
                       1.99667711E+01]),
                NASA([1800.00, 3500.00],
                     [ 6.27018126E+00,  1.06201871E-02, -3.82264672E-06,
                       6.56340789E-10, -4.60549581E-14, -2.29794782E+04,
                      -8.60119259E+00])),
        transport=gas_transport(geom='nonlinear',
                                diam=3.97,
                                well_depth=436.0,
                                rot_relax=2.0))

species(name='CH3COOH',
        atoms='C:2 H:4 O:2',
        thermo=(NASA([300.00, 1410.00],
                     [ 3.13168541E-01,  3.25739975E-02, -2.58358905E-05,
                       1.08925098E-08, -1.87287967E-12, -5.36203653E+04,
                       2.34914872E+01]),
                NASA([1410.00, 3500.00],
                     [ 7.83491620E+00,  1.12357063E-02, -3.13558070E-06,
                       1.59502818E-10,  3.01357560E-14, -5.57414981E+04,
                      -1.53809923E+01])),
        transport=gas_transport(geom='nonlinear',
                                diam=3.97,
                                well_depth=436.0,
                                rot_relax=2.0))

species(name='C2H4O2',
        atoms='C:2 H:4 O:2',
        thermo=(NASA([300.00, 770.00],
                     [ 4.64403525E+00,  1.38306802E-02,  2.18084389E-06,
                      -8.31108086E-09,  3.28100852E-12, -3.89966715E+04,
                       6.40833543E+00]),
                NASA([770.00, 3500.00],
                     [ 3.40614010E+00,  2.02613044E-02, -1.03463461E-05,
                       2.53497107E-09, -2.40436915E-13, -3.88060356E+04,
                       1.20569218E+01])),
        transport=gas_transport(geom='nonlinear',
                                diam=5.2,
                                well_depth=496.0,
                                rot_relax=1.0))

species(name='CH3OCHO',
        atoms='C:2 H:4 O:2',
        thermo=(NASA([300.00, 700.00],
                     [ 3.51192337E+00,  1.68784755E-02,  3.18099831E-06,
                      -1.24615200E-08,  5.34692693E-12, -4.42282552E+04,
                       1.08074480E+01]),
                NASA([700.00, 3500.00],
                     [ 2.14769740E+00,  2.46740524E-02, -1.35238094E-05,
                       3.44782067E-09, -3.34980467E-13, -4.40372636E+04,
                       1.69024645E+01])),
        transport=gas_transport(geom='nonlinear',
                                diam=4.037,
                                well_depth=395.0,
                                dipole=1.3,
                                rot_relax=1.0))

species(name='CH3CO3H',
        atoms='C:2 H:4 O:3',
        thermo=(NASA([300.00, 1760.00],
                     [ 3.62388957E+00,  2.85698467E-02, -2.07519902E-05,
                       7.73646324E-09, -1.13354234E-12, -4.27865299E+04,
                       1.21478877E+01]),
                NASA([1760.00, 3500.00],
                     [ 1.54960865E+01,  1.58758106E-03,  2.24425901E-06,
                      -9.74237206E-10,  1.03773065E-13, -4.69655432E+04,
                      -5.18401164E+01])),
        transport=gas_transport(geom='nonlinear',
                                diam=4.12,
                                well_depth=443.2,
                                rot_relax=1.0))

species(name='C2-OQOOH',
        atoms='C:2 H:4 O:3',
        thermo=(NASA([300.00, 1800.00],
                     [ 5.53941294E+00,  2.40528540E-02, -1.48734621E-05,
                       4.62251869E-09, -5.79298801E-13, -3.23435917E+04,
                       3.51299738E+00]),
                NASA([1800.00, 3500.00],
                     [ 1.06961666E+01,  1.25934013E-02, -5.32391821E-06,
                       1.08565058E-09, -8.80671200E-14, -3.42000230E+04,
                      -2.43964294E+01])),
        transport=gas_transport(geom='nonlinear',
                                diam=4.41,
                                well_depth=470.6,
                                rot_relax=1.5))

species(name='DME-OQOOH',
        atoms='C:2 H:4 O:4',
        thermo=(NASA([300.00, 1760.00],
                     [ 3.62388957E+00,  2.85698467E-02, -2.07519902E-05,
                       7.73646324E-09, -1.13354234E-12, -4.27865299E+04,
                       1.21478877E+01]),
                NASA([1760.00, 3500.00],
                     [ 1.54960865E+01,  1.58758106E-03,  2.24425901E-06,
                      -9.74237206E-10,  1.03773065E-13, -4.69655432E+04,
                      -5.18401164E+01])),
        transport=gas_transport(geom='nonlinear',
                                diam=4.81,
                                well_depth=403.4,
                                rot_relax=1.0))

species(name='C2H6',
        atoms='C:2 H:6',
        thermo=(NASA([300.00, 1800.00],
                     [-2.74461309E-01,  2.56422430E-02, -1.44720586E-05,
                       4.30555164E-09, -5.30740425E-13, -1.10464360E+04,
                       2.20452775E+01]),
                NASA([1800.00, 3500.00],
                     [ 4.39373503E+00,  1.52684734E-02, -5.82725051E-06,
                       1.10377088E-09, -8.60486537E-14, -1.27269866E+04,
                      -3.21997495E+00])),
        transport=gas_transport(geom='nonlinear',
                                diam=4.302,
                                well_depth=252.3,
                                rot_relax=1.5))

species(name='C2H5OH',