THERMO ALL
   200.000  1000.000  5000.000
!FROM BURKE 2012
H                 120186H   1               G  0300.00   5000.00  1000.00      1
 0.02500000E+02 0.00000000E+00 0.00000000E+00 0.00000000E+00 0.00000000E+00    2
 0.02547163E+06-0.04601176E+01 0.02500000E+02 0.00000000E+00 0.00000000E+00    3
 0.00000000E+00 0.00000000E+00 0.02547163E+06-0.04601176E+01                   4
H2                121286H   2               G  0300.00   5000.00  1000.00      1
 0.02991423E+02 0.07000644E-02-0.05633829E-06-0.09231578E-10 0.01582752E-13    2
-0.08350340E+04-0.01355110E+02 0.03298124E+02 0.08249442E-02-0.08143015E-05    3
-0.09475434E-09 0.04134872E-11-0.01012521E+05-0.03294094E+02                   4
O                 120186O   1               G  0300.00   5000.00  1000.00      1
 0.02542060E+02-0.02755062E-03-0.03102803E-07 0.04551067E-10-0.04368052E-14    2
 0.02923080E+06 0.04920308E+02 0.02946429E+02-0.01638166E-01 0.02421032E-04    3
-0.01602843E-07 0.03890696E-11 0.02914764E+06 0.02963995E+02                   4
OH                S 9/01O   1H   1    0    0G   200.000  6000.000 1000.        1
 2.86472886E+00 1.05650448E-03-2.59082758E-07 3.05218674E-11-1.33195876E-15    2
 3.68362875E+03 5.70164073E+00 4.12530561E+00-3.22544939E-03 6.52764691E-06    3
-5.79853643E-09 2.06237379E-12 3.34630913E+03-6.90432960E-01 4.51532273E+03    4
H2O                20387H   2O   1          G  0300.00   5000.00  1000.00      1
 0.02672146E+02 0.03056293E-01-0.08730260E-05 0.01200996E-08-0.06391618E-13    2
-0.02989921E+06 0.06862817E+02 0.03386842E+02 0.03474982E-01-0.06354696E-04    3
 0.06968581E-07-0.02506588E-10-0.03020811E+06 0.02590233E+02                   4
O2                121386O   2               G  0300.00   5000.00  1000.00      1
 0.03697578E+02 0.06135197E-02-0.01258842E-05 0.01775281E-09-0.01136435E-13    2
-0.01233930E+05 0.03189166E+02 0.03212936E+02 0.01127486E-01-0.05756150E-05    3
 0.01313877E-07-0.08768554E-11-0.01005249E+05 0.06034738E+02                   4
HO2               L 5/89H   1O   2   00   00G   200.000  3500.000  1000.000    1
 4.01721090E+00 2.23982013E-03-6.33658150E-07 1.14246370E-10-1.07908535E-14    2
 1.11856713E+02 3.78510215E+00 4.30179801E+00-4.74912051E-03 2.11582891E-05    3
-2.42763894E-08 9.29225124E-12 2.94808040E+02 3.71666245E+00 1.00021620E+04    4
H2O2              120186H   2O   2          G  0300.00   5000.00  1000.00      1
 0.04573167E+02 0.04336136E-01-0.01474689E-04 0.02348904E-08-0.01431654E-12    2
-0.01800696E+06 0.05011370E+01 0.03388754E+02 0.06569226E-01-0.01485013E-05    3
-0.04625806E-07 0.02471515E-10-0.01766315E+06 0.06785363E+02                   4
N2                121286N   2               G  0300.00   5000.00  1000.00      1
 0.02926640E+02 0.01487977E-01-0.05684761E-05 0.01009704E-08-0.06753351E-13    2
-0.09227977E+04 0.05980528E+02 0.03298677E+02 0.01408240E-01-0.03963222E-04    3
 0.05641515E-07-0.02444855E-10-0.01020900E+05 0.03950372E+02                   4
AR                120186AR  1               G  0300.00   5000.00  1000.00      1
 0.02500000E+02 0.00000000E+00 0.00000000E+00 0.00000000E+00 0.00000000E+00    2
-0.07453750E+04 0.04366001E+02 0.02500000E+02 0.00000000E+00 0.00000000E+00    3
 0.00000000E+00 0.00000000E+00-0.07453750E+04 0.04366001E+02                   4
HE                120186HE  1               G  0300.00   5000.00  1000.00      1
 0.02500000E+02 0.00000000E+00 0.00000000E+00 0.00000000E+00 0.00000000E+00    2
-0.07453750E+04 0.09153489E+01 0.02500000E+02 0.00000000E+00 0.00000000E+00    3
 0.00000000E+00 0.00000000E+00-0.07453750E+04 0.09153488E+01                   4
CO                121286C   1O   1          G  0300.00   5000.00  1000.00      1
 0.03025078E+02 0.01442689E-01-0.05630828E-05 0.01018581E-08-0.06910952E-13    2
-0.01426835E+06 0.06108218E+02 0.03262452E+02 0.01511941E-01-0.03881755E-04    3
 0.05581944E-07-0.02474951E-10-0.01431054E+06 0.04848897E+02                   4
CO2               121286C   1O   2          G  0300.00   5000.00  1000.00      1
 0.04453623E+02 0.03140169E-01-0.01278411E-04 0.02393997E-08-0.01669033E-12    2
-0.04896696E+06-0.09553959E+01 0.02275725E+02 0.09922072E-01-0.01040911E-03    3
 0.06866687E-07-0.02117280E-10-0.04837314E+06 0.01018849E+03                   4
!WHAT FOLLOWS AS IN BASE
A1CH3CH3          G3B3  H  10C   8O   0N   0G   300.000  3000.000  1000.000    1
-1.95577967E+00 7.09552723E-02-4.19975432E-05 1.18372259E-08-1.28339716E-12    2
-6.91883225E+01 3.59161008E+01-3.46066830E+00 7.17789316E-02-2.55611032E-05    3
-1.74870775E-08 1.22856956E-11 1.62314629E+02 4.36521185E+01                   4
C                 L11/88C   1   00   00   00G   200.000  3500.000  1000.000    1
 2.49266888E+00 4.79889284E-05-7.24335020E-08 3.74291029E-11-4.87277893E-15    2
 8.54512953E+04 4.80150373E+00 2.55423955E+00-3.21537724E-04 7.33792245E-07    3
-7.32234889E-10 2.66521446E-13 8.54438832E+04 4.53130848E+00                   4
CH                TPIS79C   1H   1   00   00G   200.000  3500.000  1000.000    1
 2.87846473E+00 9.70913681E-04 1.44445655E-07-1.30687849E-10 1.76079383E-14    2
 7.10124364E+04 5.48497999E+00 3.48981665E+00 3.23835541E-04-1.68899065E-06    3
 3.16217327E-09-1.40609067E-12 7.07972934E+04 2.08401108E+00                   4
T-CH2             L S/93C   1H   2   00   00G   200.000  3500.000  1000.000    1
 2.87410113E+00 3.65639292E-03-1.40894597E-06 2.60179549E-10-1.87727567E-14    2
 4.62636040E+04 6.17119324E+00 3.76267867E+00 9.68872143E-04 2.79489841E-06    3
-3.85091153E-09 1.68741719E-12 4.60040401E+04 1.56253185E+00                   4
S-CH2             L S/93C   1H   2   00   00G   200.000  3500.000  1000.000    1
 2.29203842E+00 4.65588637E-03-2.01191947E-06 4.17906000E-10-3.39716365E-14    2
 5.09259997E+04 8.62650169E+00 4.19860411E+00-2.36661419E-03 8.23296220E-06    3
-6.68815981E-09 1.94314737E-12 5.04968163E+04-7.69118967E-01                   4
CH3 METHYL        IU0702C   1H   3    0    0G   200.000  6000.000  1000.000    1
 2.97812060E+00 5.79785200E-03-1.97558000E-06 3.07297900E-10-1.79174160E-14    2
 1.65095130E+04 4.72247990E+00 3.65717970E+00 2.12659790E-03 5.45838830E-06    3
-6.61810030E-09 2.46570740E-12 1.64227160E+04 1.67353540E+00                   4
CH4               G 8/99C   1H   4    0    0G   200.000  6000.000  1000.000    1
 1.65326226E+00 1.00263099E-02-3.31661238E-06 5.36483138E-10-3.14696758E-14    2
-1.00095936E+04 9.90506283E+00 5.14911468E+00-1.36622009E-02 4.91453921E-05    3
-4.84246767E-08 1.66603441E-11-1.02465983E+04-4.63848842E+00                   4
HCO               L12/89H   1C   1O   1   00G   200.000  3500.000  1000.000    1
 2.77217438E+00 4.95695526E-03-2.48445613E-06 5.89161778E-10-5.33508711E-14    2
 4.01191815E+03 9.79834492E+00 4.22118584E+00-3.24392532E-03 1.37799446E-05    3
-1.33144093E-08 4.33768865E-12 3.83956496E+03 3.39437243E+00                   4
CH2O              L 8/88H   2C   1O   1   00G   200.000  3500.000  1000.000    1
 1.76069008E+00 9.20000082E-03-4.42258813E-06 1.00641212E-09-8.83855640E-14    2
-1.39958323E+04 1.36563230E+01 4.79372315E+00-9.90833369E-03 3.73220008E-05    3
-3.79285261E-08 1.31772652E-11-1.43089567E+04 6.02812900E-01                   4
CH2OH             GUNL93C   1H   3O   1   00G   200.000  3500.000 1000.0       1
 3.69266569E+00 8.64576797E-03-3.75101120E-06 7.87234636E-10-6.48554201E-14    2
-3.24250627E+03 5.81043215E+00 3.86388918E+00 5.59672304E-03 5.93271791E-06    3
-1.04532012E-08 4.36967278E-12-3.19391367E+03 5.47302243E+00                   4
CH3O              121686C   1H   3O   1     G  0300.00   3000.00  1000.00      1
 3.77079900E+00 7.87149700E-03-2.65638400E-06 3.94443100E-10-2.11261600E-14    2
 1.27832520E+02 2.92957500E+00 2.10620400E+00 7.21659500E-03 5.33847200E-06    3
-7.37763600E-09 2.07561000E-12 9.78601100E+02 1.31521770E+01                   4
CH3OH             L 8/88C   1H   4O   1   00G   200.000  3500.000  1000.000    1
 1.78970791E+00 1.40938292E-02-6.36500835E-06 1.38171085E-09-1.17060220E-13    2
-2.53748747E+04 1.45023623E+01 5.71539582E+00-1.52309129E-02 6.52441155E-05    3
-7.10806889E-08 2.61352698E-11-2.56427656E+04-1.50409823E+00                   4
OCHO              000000H   1O   2C   1    0G       300      5000    1000      1
 1.69314163E+00 1.24325760E-02-6.88672900E-06 1.32157437E-09 0.00000000E+00    2
-1.63316485E+04 1.64338301E+01 1.42991854E+00 1.22803284E-02-5.28461096E-06    3
-3.73026551E-10 5.07953571E-13-1.62042814E+04 1.80411779E+01                   4
HOCHO             000000H   2O   2C   1    0G       300      5000    1000      1
 1.24573687E+00 1.67242062E-02-9.22177878E-06 1.76438220E-09 0.00000000E+00    2
-4.65097525E+04 1.81159087E+01 1.28069021E+00 1.52887758E-02-5.64150476E-06    3
-1.22968799E-09 8.14273233E-13-4.64347524E+04 1.83142081E+01                   4
HOCH2O            000000H   3O   2C   1    0G       300      5000    1000      1
 1.72976110E+00 1.61486804E-02-7.75692098E-06 1.37089042E-09 0.00000000E+00    2
-2.22802407E+04 1.91890617E+01 4.11183145E+00 7.53850697E-03 3.77337370E-06    3
-5.38746005E-09 1.45615887E-12-2.28023001E+04 7.46807254E+00                   4
CH3O2 PEROXYMETH  T04/02C   1H   3O   2    0G   200.000  6000.000  1000.000    1
 5.92505819E+00 9.00194542E-03-3.24254309E-06 5.24362718E-10-3.14263003E-14    2
-1.53258958E+03-4.93669747E+00 4.76597792E+00-3.51077148E-03 4.54394152E-05    3
-5.66763729E-08 2.21591482E-11-4.82401289E+02 4.76095141E+00                   4
CH3O2H            000000H   4O   2C   1    0G       300      5000    1000      1
 2.86378786E+00 1.88104318E-02-9.12984329E-06 1.59788155E-09 0.00000000E+00    2
-1.74268826E+04 1.14048233E+01 2.83880024E+00 1.86096249E-02-8.48165412E-06    3
 1.00387451E-09 1.71612429E-13-1.74033753E+04 1.16092433E+01                   4
O2CHO             000000H   1O   3C   1    0G       300      5000    1000      1
 4.05631532E+00 1.02919332E-02-4.89896198E-06 8.42819470E-10 0.00000000E+00    2
-1.73830665E+04 1.12996603E+01 3.96059309E+00 1.06002279E-02-5.25713351E-06    3
 1.01716726E-09-2.87487602E-14-1.73599383E+04 1.17807483E+01                   4
HO2CHO            000000H   2O   3C   1    0G       300      5000    1000      1
 5.19208731E+00 1.32377286E-02-6.79541016E-06 1.23480098E-09 0.00000000E+00    2
-3.61691664E+04 3.52718036E+00 2.42464726E+00 2.19706380E-02-1.68705546E-05    3
 6.25612194E-09-9.11645843E-13-3.54828006E+04 1.75027796E+01                   4
C2H               L 1/91C   2H   1   00   00G   200.000  3500.000  1000.000    1
 3.16780652E+00 4.75221902E-03-1.83787077E-06 3.04190252E-10-1.77232770E-14    2
 6.71210650E+04 6.63589475E+00 2.88965733E+00 1.34099611E-02-2.84769501E-05    3
 2.94791045E-08-1.09331511E-11 6.68393932E+04 6.22296438E+00                   4
C2H2              L 1/91C   2H   2   00   00G   200.000  3500.000  1000.000    1
 4.14756964E+00 5.96166664E-03-2.37294852E-06 4.67412171E-10-3.61235213E-14    2
 2.59359992E+04-1.23028121E+00 8.08681094E-01 2.33615629E-02-3.55171815E-05    3
 2.80152437E-08-8.50072974E-12 2.64289807E+04 1.39397051E+01                   4
H2C2              L12/89H   2C   2    0    0G   200.000  6000.000  1000.000    1
 4.27803400E+00 4.75628040E-03-1.63010090E-06 2.54628060E-10-1.48863790E-14    2
 4.83166880E+04 6.40237010E-01 3.28154830E+00 6.97647910E-03-2.38552440E-06    3
-1.21044320E-09 9.81895450E-13 4.86217940E+04 5.92039100E+00                   4
C2H3              L 2/92C   2H   3   00   00G   200.000  3500.000  1000.000    1
 3.01672400E+00 1.03302292E-02-4.68082349E-06 1.01763288E-09-8.62607041E-14    2
 3.46128739E+04 7.78732378E+00 3.21246645E+00 1.51479162E-03 2.59209412E-05    3
-3.57657847E-08 1.47150873E-11 3.48598468E+04 8.51054025E+00                   4
C2H4              L 1/91C   2H   4   00   00G   200.000  3500.000  1000.000    1
 2.03611116E+00 1.46454151E-02-6.71077915E-06 1.47222923E-09-1.25706061E-13    2
 4.93988614E+03 1.03053693E+01 3.95920148E+00-7.57052247E-03 5.70990292E-05    3
-6.91588753E-08 2.69884373E-11 5.08977593E+03 4.09733096E+00                   4
C2H5              L12/92C   2H   5   00   00G   200.000  3500.000  1000.000    1
 1.95465642E+00 1.73972722E-02-7.98206668E-06 1.75217689E-09-1.49641576E-13    2
 1.28575200E+04 1.34624343E+01 4.30646568E+00-4.18658892E-03 4.97142807E-05    3
-5.99126606E-08 2.30509004E-11 1.28416265E+04 4.70720924E+00                   4
C2H6              L 8/88C   2H   6   00   00G   200.000  3500.000  1000.000    1
 1.07188150E+00 2.16852677E-02-1.00256067E-05 2.21412001E-09-1.90002890E-13    2
-1.14263932E+04 1.51156107E+01 4.29142492E+00-5.50154270E-03 5.99438288E-05    3
-7.08466285E-08 2.68685771E-11-1.15222055E+04 2.66682316E+00                   4
C2O               G 8/00C   2O   1    0    0G   200.000  6000.000  1000.000    1
 5.42468378E+00 1.85393945E-03-5.17932956E-07 6.77646230E-11-3.53315237E-15    2
 3.31537194E+04-3.69608405E+00 2.86278214E+00 1.19701204E-02-1.80851222E-05    3
 1.52777730E-08-5.20063163E-12 3.37501779E+04 8.89759099E+00                   4
HCCO              SRIC91H   1C   2O   1     G  0300.00   4000.00  1000.00      1
 5.62820580E+00 4.08534010E-03-1.59345470E-06 2.86260520E-10-1.94078320E-14    2
 1.93272150E+04-3.93025950E+00 2.25172140E+00 1.76550210E-02-2.37291010E-05    3
 1.72757590E-08-5.06648110E-12 2.00594490E+04 1.24904170E+01                   4
CH2CO             L 5/90C   2H   2O   1   00G   200.000  3500.000  1000.000    1
 4.51129732E+00 9.00359745E-03-4.16939635E-06 9.23345882E-10-7.94838201E-14    2
-7.55105311E+03 6.32247205E-01 2.13583630E+00 1.81188721E-02-1.73947474E-05    3
 9.34397568E-09-2.01457615E-12-7.04291804E+03 1.22156480E+01                   4
CH2CHO            G3B3  H   3C   2O   1N   0G   300.000  3000.000  1000.000    1
 2.42606357E+00 1.72400021E-02-9.77132119E-06 2.66555672E-09-2.82120078E-13    2
 8.33106990E+02 1.26038737E+01 1.09685733E+00 2.20228796E-02-1.44583444E-05    3
 3.00779578E-09 6.08992877E-13 1.06943322E+03 1.90094813E+01                   4
CH3CO             000000H   3O   1C   2    0G       300      5000    1000      1
 2.01002485E+00 1.58541129E-02-7.49125231E-06 1.29725074E-09 0.00000000E+00    2
-2.92817041E+03 1.65128972E+01 2.52884150E+00 1.37152173E-02-4.28607476E-06    3
-7.71684278E-10 4.83836380E-13-3.02546532E+03 1.40340315E+01                   4
CH3CHO            G3B3  H   4C   2O   1N   0G   300.000  3000.000  1000.000    1
 2.68543112E+00 1.76802373E-02-8.65402739E-06 2.03680589E-09-1.87630935E-13    2
-2.21653701E+04 1.11635653E+01 1.40653856E+00 2.16984438E-02-1.47573265E-05    3
 7.30435478E-09-2.09119467E-12-2.17973223E+04 1.77513265E+01                   4
C2H5O             000000N   0C   2H   5O   1G       300      5000    1000      1
 2.46262349E+00 2.09503959E-02-9.39291750E-06 1.56440627E-09 0.00000000E+00    2
-3.83932658E+03 1.28738847E+01 4.94420708E-01 2.71774434E-02-1.65909010E-05    3
 5.15204200E-09-6.48496915E-13-3.35252925E+03 2.28079378E+01                   4
HCCOH             SRI91SC   2O   1H   2    0G   300.000  5000.000   1000.      1
 5.92382910E+00 6.79236000E-03-2.56585640E-06 4.49878410E-10-2.99401010E-14    2
 7.26462600E+03-7.60177420E+00 1.24237330E+00 3.10722010E-02-5.08668640E-05    3
 4.31371310E-08-1.40145940E-11 8.03161430E+03 1.38743190E+01                   4
CH3CO2            000000H   3O   2C   2    0G       300      5000    1000      1
 4.04855337E+00 1.64184075E-02-7.55750381E-06 1.28409988E-09 0.00000000E+00    2
-2.78926423E+04 4.65191404E+00 1.37440768E+00 2.49115604E-02-1.74308894E-05    3
 6.24799508E-09-9.09516835E-13-2.72330150E+04 1.81405454E+01                   4
CH3OCO            000000H   3O   2C   2    0G       300      5000    1000      1
 8.96049645E-02 2.64901996E-02-1.45801232E-05 2.78768018E-09 0.00000000E+00    2
-2.08196859E+04 2.71039098E+01 2.83313145E+00 1.53447505E-02 1.89583962E-06    3
-7.70200413E-09 2.41564410E-12-2.13431832E+04 1.39524183E+01                   4
C2H5O2            000000H   5O   2C   2    0G       300      5000    1000      1
 4.83503732E+00 1.87162611E-02-7.68476909E-06 1.20298178E-09 0.00000000E+00    2
-5.11988573E+03 3.79821963E+00 2.58630333E+00 2.61836362E-02-1.68306193E-05    3
 6.08749295E-09-9.57302040E-13-4.58588992E+03 1.50486289E+01                   4
CH3CO3            000000H   3O   3C   2    0G       300      5000    1000      1
 6.99421069E+00 1.57684758E-02-7.08319519E-06 1.16988327E-09 0.00000000E+00    2
-2.42270741E+04-5.76704497E+00 3.60373432E+00 2.70080341E-02-2.08293438E-05    3
 8.50541104E-09-1.43846110E-12-2.34205171E+04 1.12014914E+01                   4
CH3CO3H           000000H   4O   3C   2    0G       300      5000    1000      1
 6.38601528E+00 2.05005671E-02-9.73848768E-06 1.68404152E-09 0.00000000E+00    2
-4.34818847E+04-3.80203963E+00 2.24135876E+00 3.37963514E-02-2.53887482E-05    3
 9.67583587E-09-1.49266157E-12-4.24677831E+04 1.70668133E+01                   4
C3H2              G3B3  H   2C   3O   0N   0G   300.000  3000.000  1000.000    1
 7.67920588E+00 3.85560826E-03-8.23429967E-07-6.18108592E-11 2.93114202E-14    2
 6.29136323E+04-1.42211873E+01 4.52861333E+00 1.77565501E-02-2.54882946E-05    3
 2.01674629E-08-6.28544707E-12 6.35410087E+04 8.09423748E-01                   4
C3H3              G3B3  H   3C   3O   0N   0G   300.000  3000.000  1000.000    1
 6.14915291E+00 9.34063166E-03-3.75055354E-06 6.90156316E-10-4.60824994E-14    2
 3.83854848E+04-7.45345215E+00 1.40299238E+00 3.01773327E-02-3.98449373E-05    3
 2.93534629E-08-8.70554579E-12 3.93108220E+04 1.51527845E+01                   4
P-C3H4            G3B3  H   4C   3O   0N   0G   300.000  3000.000  1000.000    1
 2.81460543E+00 1.85524496E-02-9.55026768E-06 2.39951370E-09-2.37485257E-13    2
 2.07010771E+04 8.60604972E+00 1.46175323E+00 2.46026602E-02-1.90219395E-05    3
 8.60363422E-09-1.66729240E-12 2.09209793E+04 1.49262585E+01                   4
A-C3H4            G3B3  H   4C   3O   0N   0G   300.000  3000.000  1000.000    1
 2.56128757E+00 1.95080128E-02-1.04061366E-05 2.70165173E-09-2.75074329E-13    2
 2.13894289E+04 9.20550397E+00 3.68928265E-01 2.89351397E-02-2.44386408E-05    3
 1.12547166E-08-2.03040262E-12 2.17585256E+04 1.95267211E+01                   4
A-C3H5            G3B3  H   5C   3O   0N   0G   300.000  3000.000  1000.000    1
 2.28794927E+00 2.36401575E-02-1.27891450E-05 3.36838540E-09-3.47449449E-13    2
 1.83033514E+04 1.14063418E+01-1.03516444E+00 3.75043366E-02-3.26381242E-05    3
 1.47662613E-08-2.43741154E-12 1.88792254E+04 2.71451071E+01                   4
T-C3H5            G3B3  H   5C   3O   0N   0G   300.000  3000.000  1000.000    1
 3.15893724E+00 2.04649335E-02-1.00947812E-05 2.41157382E-09-2.26535162E-13    2
 2.87351148E+04 8.93041515E+00 8.80980628E-01 2.96361924E-02-2.52725602E-05    3
 1.43651816E-08-3.89566621E-12 2.92321259E+04 2.00163594E+01                   4
S-C3H5            G3B3  H   5C   3O   0N   0G   300.000  3000.000  1000.000    1
 2.02509360E+00 2.35513249E-02-1.28254556E-05 3.39579222E-09-3.51794724E-13    2
 3.11812042E+04 1.46653302E+01 3.13106581E-01 3.18769663E-02-2.53420013E-05    3
 1.02999073E-08-1.35301854E-12 3.13767683E+04 2.23728832E+01                   4
C3H6              G3B3  H   6C   3O   0N   0G   300.000  3000.000  1000.000    1
 4.71697982E-01 2.89513070E-02-1.56601819E-05 4.11443199E-09-4.23075141E-13    2
 1.12603387E+03 2.15237289E+01-2.29261670E-03 3.10261065E-02-1.67151548E-05    3
 1.89594170E-09 1.24957915E-12 1.13437406E+03 2.35719601E+01                   4
N-C3H7          N-L 9/85C   3H   7    0    0G   298.15   5000.00               1
 7.70404050E+00 1.60415400E-02-5.28159670E-06 7.62544030E-10-3.93534620E-14    2
 8.29795310E+03-1.54875140E+01 1.04754730E+00 2.60077940E-02 2.35622520E-06    3
-1.95923170E-08 9.36801160E-12 1.06326370E+04 2.11418760E+01                   4
I-C3H7            000000N   0C   3H   7O   0G       300      5000    1000      1
 8.06336900E+00 1.57448800E-02-5.18239200E-06 7.47724500E-10-3.85442200E-14    2
 5.31387100E+03-2.19264700E+01 1.71330000E+00 2.54261600E-02 1.58080800E-06    3
-1.82128600E-08 8.82771000E-12 7.53580900E+03 1.29790100E+01                   4
C3H8              L 4/85C   3H   8          G   300.000  5000.000  1000.000    1
 7.53413680E+00 1.88722390E-02-6.27184910E-06 9.14756490E-10-4.78380690E-14    2
-1.64675160E+04-1.78923490E+01 9.33553810E-01 2.64245790E-02 6.10597270E-06    3
-2.19774990E-08 9.51492530E-12-1.39585200E+04 1.92016910E+01                   4
C3H2O             G3B3  H   2C   3O   1N   0G   300.000  3000.000  1000.000    1
 5.51551710E+00 1.20296564E-02-6.09058988E-06 1.48866261E-09-1.42588474E-13    2
 1.29567538E+04-2.05439127E+00 1.89401982E+00 2.66301486E-02-2.97185216E-05    3
 1.94290386E-08-5.43402767E-12 1.37271761E+04 1.55182339E+01                   4
C2H3CO            000000H   3O   1C   3    0G       300      5000    1000      1
 7.49438492E+00 1.07546430E-02-3.99256412E-06 5.48455956E-10 0.00000000E+00    2
 2.82679210E+03-1.33012118E+01 1.36242013E+00 3.15273972E-02-3.00218935E-05    3
 1.48167112E-08-2.87971530E-12 4.25770215E+03 1.72626546E+01                   4
C2H3CHO           000000N   0C   3H   4O   1G       300      5000    1000      1
 5.56154592E+00 1.79295837E-02-8.03464758E-06 1.32295375E-09 0.00000000E+00    2
-1.29035886E+04-3.47372739E+00 2.92355162E-01 3.54321417E-02-2.94936324E-05    3
 1.28100124E-08-2.26144108E-12-1.16521584E+04 2.28878280E+01                   4
C3H5O             000000N   0C   3H   5O   1G       300      5000    1000      1
 3.39074577E+00 2.41301620E-02-1.13650894E-05 1.97900938E-09 0.00000000E+00    2
 9.00757452E+03 1.03459501E+01 1.19822582E+00 3.05579837E-02-1.80630276E-05    3
 4.86150033E-09-4.19854562E-13 9.58217784E+03 2.15566221E+01                   4
C2H5CO            000000H   5O   1C   3    0G       300      5000    1000      1
-6.94645722E+00 4.57483957E-02-2.34142541E-05 4.11886760E-09 0.00000000E+00    2
-2.88661922E+03 6.62371337E+01 8.35352246E+00-4.08739727E-03 3.64217954E-05    3
-2.72457713E-08 6.06440266E-12-6.58577307E+03-1.05948346E+01                   4
CH3COCH2          000000H   5O   1C   3    0G       300      5000    1000      1
 4.12743010E+00 2.33730564E-02-1.10040288E-05 1.89595418E-09 0.00000000E+00    2
-7.31939257E+03 5.86552803E+00 1.22337251E+00 3.24546742E-02-2.13542518E-05    3
 6.96777735E-09-8.99160299E-13-6.59419324E+03 2.05537233E+01                   4
C3H6O1-2          000000H   6O   1C   3    0G       300      5000    1000      1
 3.38847938E+00 2.75998053E-02-1.31204208E-05 2.25193748E-09 0.00000000E+00    2
-1.33927687E+04 5.77788266E+00-1.21988153E+00 4.28578772E-02-3.17530249E-05    3
 1.21763736E-08-1.94154303E-12-1.22953761E+04 2.88467826E+01                   4
C2H5CHO           000000H   6O   1C   3    0G       300      5000    1000      1
-4.81085452E+00 4.36437972E-02-2.10673519E-05 3.54727729E-09 0.00000000E+00    2
-2.25258115E+04 5.34209461E+01 5.93107530E+00 8.87943855E-03 2.03764325E-05    3
-1.80149348E-08 4.14085655E-12-2.51377751E+04-5.87019974E-01                   4
CH3COCH3 ACETONE  ATCT AC   3H   6O   1    0G   200.000  6000.000  1000.000    1
 7.29796974E+00 1.75656913E-02-6.31678065E-06 1.02025553E-09-6.10903592E-14    2
-2.95368927E+04-1.27591704E+01 5.55638920E+00-2.83863547E-03 7.05722951E-05    3
-8.78130984E-08 3.40290951E-11-2.78325393E+04 2.31960221E+00                   4
N-C3H7O           000000N   0C   3H   7O   1G       300      5000    1000      1
 3.42509077E+00 2.93139212E-02-1.31458358E-05 2.18800366E-09 0.00000000E+00    2
-7.01563135E+03 9.63434706E+00 2.89706514E-01 3.93075560E-02-2.48069355E-05    3
 8.07083573E-09-1.07998290E-12-6.24474269E+03 2.54387810E+01                   4
CH3COCH2O         000000H   5O   2C   3    0G       300      5000    1000      1
 3.50032506E+00 2.75257713E-02-1.28950710E-05 2.21063245E-09 0.00000000E+00    2
-1.91236482E+04 1.28924392E+01 3.72927689E+00 2.63943697E-02-1.09796486E-05    3
 8.58185303E-10 3.39474590E-13-1.91551565E+04 1.18505335E+01                   4
N-C3H7O2          000000H   7O   2C   3    0G       300      5000    1000      1
 4.71102090E+00 3.06142048E-02-1.34432869E-05 2.17481455E-09 0.00000000E+00    2
-8.53286429E+03 5.98366370E+00 2.10731492E+00 3.96164986E-02-2.49491599E-05    3
 8.59450300E-09-1.31240330E-12-7.93745567E+03 1.89082748E+01                   4
C3H6OOH1-2        000000H   7O   2C   3    0G       300      5000    1000      1
 6.11209376E+00 2.71994345E-02-1.18138942E-05 1.92988821E-09 0.00000000E+00    2
-1.58345092E+03 3.06472503E+00 2.87774562E+00 3.74166999E-02-2.36058063E-05    3
 7.79930860E-09-1.06042562E-12-7.82368119E+02 1.93941340E+01                   4
I-C3H7O2          000000H   7O   2C   3    0G       300      5000    1000      1
 6.12023736E+00 2.85231950E-02-1.23003518E-05 1.95801865E-09 0.00000000E+00    2
-1.13282549E+04-2.75966759E+00 1.49941639E+00 4.43081205E-02-3.22414456E-05    3
 1.29687136E-08-2.23370569E-12-1.02587980E+04 2.02336490E+01                   4
CH3COCH2O2        000000H   5O   3C   3    0G       300      5000    1000      1
 6.39329449E+00 2.51799300E-02-1.09572190E-05 1.75980253E-09 0.00000000E+00    2
-2.07465812E+04 3.13566590E+00 5.95535468E+00 2.70255205E-02-1.37385031E-05    3
 3.53735851E-09-4.03922557E-13-2.06679464E+04 5.21436049E+00                   4
CH3COCH2O2H       000000H   6O   3C   3    0G       300      5000    1000      1
 7.24028399E+00 2.85127508E-02-1.30584984E-05 2.19051057E-09 0.00000000E+00    2
-3.94177289E+04-2.99086912E+00 4.94789761E+00 3.60474432E-02-2.21719933E-05    3
 6.98296874E-09-9.21269260E-13-3.88687178E+04 8.49926130E+00                   4
C4H               G3B3  H   1C   4O   0N   0G   300.000  3000.000  1000.000    1
 7.44964925E+00 5.23173174E-03-1.96340383E-06 3.00667811E-10-1.16121546E-14    2
 9.30052443E+04-1.24961267E+01 3.23559253E+00 2.27091533E-02-3.18443291E-05    3
 2.44864804E-08-7.57986440E-12 9.39080960E+04 7.90671244E+00                   4
C4H2              G3B3  H   2C   4O   0N   0G   300.000  3000.000  1000.000    1
 9.75839793E+00 3.78873223E-03 3.06142015E-07-6.33655024E-10 1.12930032E-13    2
 5.22698696E+04-2.79084005E+01 1.73325212E-01 4.53949030E-02-7.30123830E-05    3
 5.95251736E-08-1.87484716E-11 5.42239385E+04 1.80184355E+01                   4
I-C4H3            G3B3  H   3C   4O   0N   0G   300.000  3000.000  1000.000    1
 7.29283596E+00 1.21664949E-02-5.50925306E-06 1.19291350E-09-1.00493092E-13    2
 5.71961011E+04-1.05737251E+01 3.02566263E+00 3.04693624E-02-3.68345185E-05    3
 2.60035352E-08-7.62154351E-12 5.80551505E+04 9.87268458E+00                   4
N-C4H3            G3B3  H   3C   4O   0N   0G   300.000  3000.000  1000.000    1
 7.25330164E+00 1.19580846E-02-5.26715675E-06 1.09981875E-09-8.84016751E-14    2
 6.28977574E+04-1.05283126E+01-3.55175031E-02 4.30508503E-02-5.75729147E-05    3
 4.15883142E-08-1.20750857E-11 6.43506593E+04 2.43816855E+01                   4
C4H4              G3B3  H   4C   4O   0N   0G   300.000  3000.000  1000.000    1
 4.97237210E+00 1.93139904E-02-9.81196508E-06 2.43005054E-09-2.37099738E-13    2
 3.30561454E+04-6.23055157E-01-2.31343354E-01 4.11814497E-02-4.47624056E-05    3
 2.75434157E-08-7.06376813E-12 3.40632704E+04 2.42662442E+01                   4
N-C4H5            G3B3  H   5C   4O   0N   0G   300.000  3000.000  1000.000    1
 4.87674639E+00 2.27534299E-02-1.17714698E-05 2.95251455E-09-2.91456566E-13    2
 4.11081097E+04 2.21507772E+00-1.16849950E+00 4.79006074E-02-5.12377002E-05    3
 3.06244264E-08-7.59906965E-12 4.22787216E+04 3.11630273E+01                   4
I-C4H5            G3B3  H   5C   4O   0N   0G   300.000  3000.000  1000.000    1
 4.34643669E+00 2.45761440E-02-1.30953685E-05 3.38848125E-09-3.43519633E-13    2
 3.58709780E+04 3.29579091E+00-3.31905498E-01 4.40163876E-02-4.27690246E-05    3
 2.31284316E-08-5.17171519E-12 3.67510686E+04 2.56362838E+01                   4
C4H6              G3B3  H   6C   4O   0N   0G   300.000  3000.000  1000.000    1
-8.99531092E+00 6.01715069E-02-4.20057758E-05 1.33330056E-08-1.57423690E-12    2
 1.49296107E+04 7.11866909E+01 4.01336263E+00 4.44626850E-03 7.80683019E-05    3
-1.11674129E-07 4.60753846E-11 1.14807231E+04 6.77079654E+00                   4
C4H7  3BUTENE-1YL T05/04C   4H   7    0    0G   200.000  6000.000  1000.000    1
 8.49073768E+00 1.91056974E-02-6.74370664E-06 1.07343267E-09-6.36251837E-14    2
 2.04659294E+04-1.74555814E+01 5.07355313E+00 5.27619329E-03 6.23441322E-05    3
-8.54203458E-08 3.45890031E-11 2.24615054E+04 5.60318035E+00                   4
I-C4H7            000000N   0C   4H   7O   0G       300      5000    1000      1
 4.86718299E+00 2.75411161E-02-1.19816020E-05 1.93828198E-09 0.00000000E+00    2
 1.34120718E+04-1.04709781E+00-7.20881697E-04 4.36495730E-02-3.16385877E-05    3
 1.23984983E-08-2.04378360E-12 1.45717785E+04 2.33234340E+01                   4
C4H71-3           000000H   7O   0C   4    0G       300      5000    1000      1
 2.82893542E+00 3.08279945E-02-1.39143197E-05 2.32514504E-09 0.00000000E+00    2
 1.44734902E+04 9.85208535E+00-1.12475112E+00 4.34882854E-02-2.87750454E-05    3
 9.88046971E-09-1.40120341E-12 1.54420160E+04 2.97651156E+01                   4
P-C4H8            000000N   0C   4H   8O   0G       300      5000    1000      1
 3.04470367E+00 3.27451765E-02-1.45363237E-05 2.39744017E-09 0.00000000E+00    2
-2.52177534E+03 1.00151514E+01-8.31372089E-01 4.52580978E-02-2.93658559E-05    3
 1.00220436E-08-1.43191680E-12-1.57875035E+03 2.95084236E+01                   4
I-C4H8            000000N   0C   4H   8O   0G       300      5000    1000      1
 2.86958571E+00 3.29649207E-02-1.46431210E-05 2.41629691E-09 0.00000000E+00    2
-4.22675236E+03 9.39239621E+00 9.38433173E-01 3.90547287E-02-2.16437148E-05    3
 5.87267077E-09-6.14435479E-13-3.74817891E+03 1.91442985E+01                   4
P-C4H9            000000N   0C   4H   9O   0G       300      5000    1000      1