ELEMENTS
O  H  C  N  AR
END
SPECIES
 N2       AR
 H         O         OH        HO2       H2        H2O       H2O2      O2
 CH2       CH2-      CH3       CH4
 HCO       CH2O      CH3O      CO        CO2
 C2H2      C2H3      C2H4      C2H5      C2H6      CH2CHO
 AC3H5     C3H6      NC3H7     C2H3CHO
 C4H7      C4H81     PC4H9
 C5H9      C5H10     PXC5H11
 C6H12     PXC6H13
 C7H14     PXC7H15
 C8H16     PXC8H17
 C9H18     PXC9H19
 C10H20    PXC10H21
 C12H26   PXC12H25  SXC12H25  S3XC12H25 C12H24
!
 ! LOW TEMPERATURE SPECIES
 !
 C12H25O2        C12OOH
 O2C12H24OOH     OC12H23OOH
END
REACTIONS
 H+O2<=>OH+O                                  9.756E+13    0.000  14842.26
 O+H2<=>H+OH                                  4.589E+04    2.700   6260.00
 OH+H2<=>H2O+H                                1.024E+08    1.600   3298.28
 OH+OH<=>O+H2O                                3.973E+04    2.400  -2110.00
 H+O2(+M)<=>HO2(+M)                           5.116E+12    0.440     0.00
 LOW / 6.328E+19  -1.400     0.00 /
 TROE/ 0.5  1E-30  1E+30         /
 O2/0.85/  H2O/11.89/ CO/1.09/ CO2/2.18/ AR/0.40/
 HO2+H<=>OH+OH                                7.485E+13    0.000   295.00
 H2+O2<=>HO2+H                                5.916E+05   2.433  53502.00
 HO2+OH<=>H2O+O2                              2.891E+13    0.000   -501.91
 HO2+H<=>O+H2O                                3.970E+12    0.000   671.00
 HO2+O<=>OH+O2                                4.000E+13    0.000     0.00
 HO2+HO2<=>O2+H2O2                            1.300E+11    0.000 -1630.00
  DUPLICATE
 HO2+HO2<=>O2+H2O2                            3.658E+14    0.000 12000.00
  DUPLICATE
 H2O2+H<=>OH+H2O                              2.410E+13    0.000   3970.00
 H2O2+H<=>HO2+H2                              6.050E+06    2.000   5200.00
 H2O2+O<=>OH+HO2                              9.630E+06    2.000   3970.00
 H2O2+OH<=>HO2+H2O                            2.000E+12    0.000    427.00
  DUPLICATE
 H2O2+OH<=>HO2+H2O                            2.670E+41   -7.000  37600.00
  DUPLICATE
 OH+OH(+M)<=>H2O2(+M)                         1.110E+14  -0.370      0.00
 LOW  /  2.010E+17  -0.584  -2293.00 /
 TROE / 0.7346   94.  1756.00  5182.0 /
 H2/2.0/ H2O/6.00/ CO/1.75/ CO2/3.6/ AR/0.7/
 H+H+M<=>H2+M                                 1.780E+18  -1.000      0.00
 H2/0.0/ H2O/0.0/ CO2/0.0/ AR/0.63/
 H+OH+M<=>H2O+M                               4.400E+22  -2.000      0.00
 H2/2.0/ H2O/6.30/ CO/1.75/ CO2/3.6/  AR/0.38/
 O+O+M<=>O2+M                                 1.200E+17  -1.000      0.00
 H2/2.4/ H2O/15.4/  CO/1.75/ CO2/3.6/  AR/0.83/
 H+H+H2<=>H2+H2                               9.000E+16  -0.600      0.00
 H+H+H2O<=>H2+H2O                             5.624E+19  -1.250      0.00
 H+H+CO2<=>H2+CO2                             5.500E+20  -2.000      0.00
 O+H+M<=>OH+M                                 9.428E+18  -1.000      0.00
 H2/2.0/ H2O/12.0/ CO/1.75/ CO2/3.6/  AR/0.7/
 CO+OH<=>CO2+H                                7.046E+04    2.053  -355.67
   DUPLICATE
 CO+OH<=>CO2+H                                5.757E+12   -0.664   331.83
   DUPLICATE
 CO+HO2<=>CO2+OH                              1.570E+05    2.180  17942.61
 CO+O(+M)=CO2(+M)                             1.362E+10    0.000   2384.00
 LOW / 1.173E+24   -2.79    4191.   /
 H2/2.0/ H2O/12/ CO/1.75/ CO2/3.6/ AR/0.7/
 CO+O2<=>CO2+O                                1.119E+12    0.000  47700.00
 HCO+M<=>CO+H+M                               1.870E+17   -1.000  17000.00
 H2/2.0/ H2O/0.0/ CO/1.75/ CO2/3.6/
 HCO+H<=>CO+H2                                1.200E+14    0.000      0.00
 HCO+O<=>CO+OH                                3.000E+13    0.000      0.00
 HCO+O<=>CO2+H                                3.000E+13    0.000      0.00
 HCO+OH<=>CO+H2O                              3.020E+13    0.000      0.00
 HCO+O2<=>CO+HO2                              1.204E+10    0.807   -727.00
 HCO+H2O<=>CO+H+H2O                           2.244E+18   -1.000  17000.00
 CO+H2(+M)<=>CH2O(+M)                          4.300E+07    1.500  79600.00
 LOW  /  5.070E+27   -3.420  84350.00  /
 TROE/  0.9320  197.00  1540.00 10300. /
 H2/2.0/ H2O/6.0/ CH4/2.0/ CO/1.5/ CO2/2.0/ C2H6/3.0/ AR/0.7/
 HCO+H(+M)<=>CH2O(+M)                         1.090E+12    0.480   -260.00
 LOW  /  1.350E+24   -2.570   1425.00  /
 TROE/  0.7824  271.0  2755.00  6570.0 /
 H2/2.0/ H2O/6.0/ CH4/2.0/ CO/1.5/ CO2/2.0/ C2H6/3.0/ AR/0.7 /
 CH2+H(+M)<=>CH3(+M)                          2.500E+16   -0.800      0.00
 LOW  /  3.200E+27   -3.140   1230.00  /
 TROE/  0.6800   78.00  1995.0  5590.0 /
 H2/2.0/ H2O/6.0/ CH4/2.0/ CO/1.5/ CO2/2.0/ C2H6/3.0/ AR/0.7/
 CH2+O<=>HCO+H                                8.000E+13    0.000      0.00
 CH2+OH<=>CH2O+H                              2.000E+13    0.000      0.00
 CH2+H2<=>H+CH3                               5.000E+05    2.000   7230.00
 CH2+O2<=>HCO+OH                              1.060E+13    0.000   1500.00
 CH2+O2<=>CO2+H+H                             2.640E+12    0.000   1500.00
 CH2+HO2<=>CH2O+OH                            2.000E+13    0.000      0.00
 CH2+CH2<=>C2H2+H2                            3.200E+13    0.000      0.00
 CH2-+N2<=>CH2+N2                             1.500E+13    0.000    600.00
 CH2-+AR<=>CH2+AR                             9.000E+12    0.000    600.00
 CH2-+O<=>CO+H2                               1.500E+13    0.000      0.00
 CH2-+O<=>HCO+H                               1.500E+13    0.000      0.00
 CH2-+OH<=>CH2O+H                             3.000E+13    0.000      0.00
 CH2-+H2<=>CH3+H                              7.000E+13    0.000      0.00
 CH2-+O2<=>H+OH+CO                            2.800E+13    0.000      0.00
 CH2-+O2<=>CO+H2O                             1.200E+13    0.000      0.00
 CH2-+H2O<=>CH2+H2O                           3.000E+13    0.000      0.00
 CH2-+CO<=>CH2+CO                             9.000E+12    0.000      0.00
 CH2-+CO2<=>CH2+CO2                           7.000E+12    0.000      0.00
 CH2-+CO2<=>CH2O+CO                           1.400E+13    0.000      0.00
!
 CH2O+H(+M)<=>CH3O(+M)                        5.400E+11    0.454   2600.00
 LOW  /  2.200E+30   -4.800   5560.00  /
 TROE/  0.7580   94.00  1555.0 4200.00 /
 H2/2.0/ H2O/6.0/ CH4/2.0/ CO/1.5/ CO2/2.0/ C2H6/3.0/
!
 CH2O+H<=>HCO+H2                              2.300E+10    1.050   3275.00
 CH2O+O<=>HCO+OH                              3.900E+13    0.000   3540.00
 CH2O+OH<=>HCO+H2O                            3.430E+09    1.180   -447.00
 CH2O+O2<=>HCO+HO2                            1.000E+14    0.000  40000.00
 CH2O+HO2<=>HCO+H2O2                          1.000E+12    0.000   8000.00
 CH3+H(+M)<=>CH4(+M)                          1.270E+16   -0.630    383.00
 LOW  /   2.477E+33   -4.760   2440.00  /
 TROE/  0.7830   74.00  2941.00  6964.0 /
 H2/2.0/ H2O/6.0/ CH4/2.0/ CO/1.5/ CO2/2.0/ C2H6/3.0/ AR/0.7/
!
 CH3+O<=>CH2O+H                               8.430E+13    0.000      0.00
!
 CH3+OH<=>CH2+H2O                             5.600E+07    1.600   5420.00
 CH3+OH<=>CH2-+H2O                            2.501E+13    0.000      0.00
 CH3+O2<=>O+CH3O                              3.083E+13    0.000  28800.00
 CH3+O2<=>OH+CH2O                             3.600E+10    0.000   8940.00
 CH3+HO2<=>CH4+O2                             1.000E+12    0.000      0.00
 CH3+HO2<=>CH3O+OH                            1.340E+13    0.000      0.00
 CH3+H2O2<=>CH4+HO2                           2.450E+04    2.470   5180.00
 CH3+HCO<=>CH4+CO                             8.480E+12    0.000      0.00
 CH3+CH2O<=>CH4+HCO                           3.320E+03    2.810   5860.00
 CH3+CH2<=>C2H4+H                             4.000E+13    0.000      0.00
 CH3+CH2-<=>C2H4+H                            1.200E+13    0.000   -570.00
 CH3+CH3(+M)<=>C2H6(+M)                       2.120E+16   -0.970    620.00
 LOW  /  1.770E+50   -9.670   6220.00  /
 TROE/  0.5325  151.0  1038.00  4970.0 /
 H2/2.0/ H2O/6.0/ CH4/2.0/ CO/1.5/ CO2/2.0/ C2H6/3.0/ AR/0.7/
!
 CH3+CH3<=>H+C2H5                             4.990E+12    0.100  10600.00
!
 CH3O+H<=>CH2O+H2                             2.000E+13    0.000      0.00
 CH3O+H<=>CH3+OH                              3.200E+13    0.000      0.00
 CH3O+H<=>CH2-+H2O                            1.600E+13    0.000      0.00
 CH3O+O<=>CH2O+OH                             1.000E+13    0.000      0.00
 CH3O+OH<=>CH2O+H2O                           5.000E+12    0.000      0.00
 CH3O+O2<=>CH2O+HO2                           4.280E-13    7.600  -3530.00
 CH4+H<=>CH3+H2                               6.600E+08    1.620 10840.00
 CH4+O<=>CH3+OH                               1.020E+09    1.500  8600.00
 CH4+OH<=>CH3+H2O                             1.000E+08    1.600  3120.00
 CH4+CH2<=>CH3+CH3                            2.460E+06    2.000  8270.00
 CH4+CH2-<=>CH3+CH3                           1.600E+13    0.000  -570.00
 C2H3 (+M)<=>C2H2+H (+M)                      3.860E+07    1.620  37048.2
 LOW  /  2.565E+27   -3.400  35798.72  /
 TROE/  1.9816  5383.7  4.2932 -0.0795 /
 H2/2.0/ H2O/6.0/ CH4/2.0/ CO/1.5/ CO2/2.0/ C2H6/3.0/ AR/0.7/ C2H2/3.00/ C2H4/3.00/
 C2H2+O<=>CH2+CO                              4.080E+06    2.000   1900.00
 C2H2+OH<=>CH3+CO                             4.830E-04    4.000  -2000.00
 C2H2+HCO<=>C2H3+CO                           1.000E+07    2.000   6000.00
 C2H2+CH3<=>AC3H5                             2.68E+53    -12.82   35730.0
!
!
!
!
! REACTIONS OF C2H3
!
 C2H3+H(+M)<=>C2H4(+M)                        6.080E+12    0.270     280.00
 LOW  /  1.400E+30   -3.860    3320.00 /
 TROE/  0.7820  207.50  2663.00  6095.00/
 H2/2.0/ H2O/6.0/ CH4/2.0/ CO/1.5/ CO2/2.0/ C2H6/3.0/ AR/0.7/ C2H2/3.00/ C2H4/3.00/
 C2H3+H<=>C2H2+H2                             9.000E+13    0.000       0.00
 C2H3+O<=>CH3+CO                              4.800E+13    0.000       0.00
 C2H3+OH<=>C2H2+H2O                           3.011E+13    0.000       0.00
 C2H3+O2<=>C2H2+HO2                           1.340E+06    1.610    -383.40
 C2H3+O2<=>CH2CHO+O                           3.000E+11    0.290      11.00
 C2H3+O2<=>HCO+CH2O                           4.600E+16   -1.390    1010.00
 C2H3+HO2<=>CH2CHO+OH                         1.000E+13    0.000       0.00
 C2H3+H2O2<=>C2H4+HO2                         1.210E+10    0.000    -596.00
 C2H3+HCO<=>C2H4+CO                           9.033E+13    0.000       0.00
 C2H3+HCO<=>C2H3CHO                           1.800E+13    0.00        0.0
 C2H3+CH3<=>C2H2+CH4                          3.920E+11    0.000       0.00
 C2H3+CH3 (+M)<=>C3H6(+M)                     2.500E+13    0.000       0.00
 LOW  / 4.270E+58  -11.940    9769.80 /
 TROE / 0.175  1340.6 60000.0 10139.8 /
 H2/2/ H2O/6/ CH4/2/ CO/1.5/ CO2/2/ C2H6/3/ AR/0.7/C2H2/3.00/ C2H4/3.00/
!
 C2H3+CH3<=>AC3H5+H                           1.500E+24   -2.830    18618.0
 C2H3+C2H3<=>C2H2+C2H4                        9.600E+11    0.00        0.
 CH2CHO<=>CH3+CO                              7.800E+41   -9.147   46900.00
!
 CH2CHO+H<=>CH3+HCO                           9.000E+13    0.000       0.00
 CH2CHO+O2<=>CH2O+CO+OH                       1.800E+10    0.000       0.00
!
!
!
!
! REACTIONS OF C2H4
!
 C2H4+H(+M)<=>C2H5(+M)                        3.975E+09    1.280   1290.63
 LOW  /  4.715E+18    0.000    755.26 /
!
 TROE/    0.76    40.00   1025.00        /
 H2/2.0/ H2O/6.0/ CH4/2.0/ CO/1.5/ CO2/2.0/ C2H6/3.0/ AR/0.7/
!
 C2H4+H<=>C2H3+H2                             5.070E+07    1.900  12950.00
 C2H4+O<=>C2H3+OH                             1.510E+07    1.900   3740.00
 C2H4+O<=>CH3+HCO                             1.920E+07    1.830    220.00
 C2H4+O<=>CH2+CH2O                            3.840E+05    1.830    220.00
 C2H4+OH<=>C2H3+H2O                           3.600E+06    2.000   2500.00
 C2H4+HCO<=>C2H5+CO                           1.000E+07    2.000   8000.00
 C2H4+CH2<=>AC3H5+H                           2.000E+13    0.000   6000.00
 C2H4+CH2-<=>AC3H5+H                          5.000E+13    0.000      0.00
 C2H4+CH3<=>C2H3+CH4                          2.270E+05    2.000   9200.00
 NC3H7<=>CH3+C2H4                        9.600E+13    0.000  31022.94
 C2H4+O2<=>C2H3+HO2                           4.220E+13    0.000  60800.00
 C2H4+C2H3<=>C4H7                             7.93E+38    -8.47    14220.0
!
!
! REACTIONS OF C2H5
!
 C2H5+H(+M)<=>C2H6(+M)                        5.210E+17   -0.990  1580.00
 LOW  / 1.990E+41   -7.080  6685.00   /
 TROE / 0.8422  125.0  2219.00 6882.0 /
 H2/2.0/ H2O/6.0/ CH4/2.0/ CO/1.5/ CO2/2.0/ C2H6/3.0/ AR/0.7/
!
 C2H5+H<=>C2H4+H2                             2.000E+12    0.000     0.00
 C2H5+O<=>CH3+CH2O                            1.604E+13    0.000     0.00
 C2H5+O2<=>C2H4+HO2                           2.000E+10    0.000     0.00
 C2H5+HO2<=>C2H6+O2                           3.000E+11    0.000     0.00
 C2H5+HO2<=>C2H4+H2O2                         3.000E+11    0.000     0.00
 C2H5+HO2<=>CH3+CH2O+OH                       2.400E+13    0.000     0.00
 C2H5+H2O2<=>C2H6+HO2                         8.700E+09    0.000   974.00
 C2H5+C2H3(+M)<=>C4H81(+M)                    1.50E+13   0.00        0.0
 LOW  / 1.55E+56 -11.79     8984.5    /
 TROE / 0.198 2277.9 60000.0 5723.2   /
 H2/2/ H2O/6/ CH4/2/ CO/1.5/ CO2/2/ C2H6/3/ AR/0.7/
!
 C2H5+C2H3<=>AC3H5+CH3                        3.90E+32  -5.22    19747.0
!
! REACTIONS OF C2H6
!
 C2H6+H<=>C2H5+H2                             1.15E+08    1.900   7530.00
 C2H6+O<=>C2H5+OH                             8.98E+07    1.920   5690.00
 C2H6+OH<=>C2H5+H2O                           3.54E+06    2.120    870.00
 C2H6+CH2-<=>C2H5+CH3                         4.00E+13    0.000   -550.00
 C2H6+CH3<=>C2H5+CH4                          6.14E+06    1.740  10450.00
!
!
! REACTIONS OF C3H5
!
 AC3H5+H(+M)<=>C3H6(+M)                       2.00E+14   0.00        0.0
 LOW  / 1.33E+60 -12.00   5967.8      /
 TROE / 0.020  1096.6  1096.6  6859.5 /
 H2/2/ H2O/6/ CH4/2/ CO/1.5/ CO2/2/ C2H6/3/ AR/0.7/
!
 AC3H5+O<=>C2H3CHO+H                          6.00E+13   0.00        0.0
 AC3H5+OH<=>C2H3CHO+H+H                       4.20E+32  -5.16    30126.0
 AC3H5+O2<=>C2H3CHO+OH                        1.82E+13  -0.41    22859.0
 AC3H5+HO2<=>C3H6+O2                          2.66E+12   0.00        0.0
 AC3H5+HO2<=>OH+C2H3+CH2O                     6.60E+12   0.00        0.0
 AC3H5+HCO<=>C3H6+CO                          6.00E+13   0.00        0.0
 AC3H5+CH3(+M)<=>C4H81(+M)                    1.00E+14  -0.32     -262.3
 LOW  / 3.91E+60 -12.81     6250.0    /
 TROE / 0.104  1606.0 60000.0  6118.4 /
 H2/2/ H2O/6/ CH4/2/ CO/1.5/ CO2/2/ C2H6/3/ AR/0.7/
!
!
!
! REACTIONS OF C3H6
!
 C3H6+H(+M)<=>NC3H7(+M)                       1.33E+13   0.00     3260.7
 LOW  / 6.26E+38  -6.66     7000.0    /
 TROE / 1.000  1000.0  1310.0 48097.0 /
 H2/2/ H2O/6/ CH4/2/ CO/1.5/ CO2/2/ C2H6/3/ AR/0.7/
!
 C3H6+H<=>C2H4+CH3                            8.00E+21  -2.39    11180.0
 C3H6+H<=>AC3H5+H2                            1.73E+05   2.50     2490.0
 C3H6+O<=>C2H3CHO+H+H                         0.40E+08   1.65      327.0
 C3H6+O<=>C2H5+HCO                            3.50E+07   1.65     -972.0
 C3H6+O<=>AC3H5+OH                            1.80E+11   0.70     5880.0
 C3H6+OH<=>AC3H5+H2O                          3.10E+06   2.00     -298.0
 C3H6+HO2<=>AC3H5+H2O2                        9.60E+03   2.60    13910.0
 C3H6+CH3<=>AC3H5+CH4                         2.20E+00   3.50     5675.0
!
! REACTIONS OF C2H3CHO
!
 C2H3CHO+H<=>C2H4+HCO                         1.08E+11   0.454    5820.00
 C2H3CHO+O<=>C2H3+OH+CO                       3.00E+13   0.00     3540.00
 C2H3CHO+OH<=>C2H3+H2O+CO                     3.43E+09   1.18     -447.00
!
!
!
! REACTIONS OF NC3H7
!
 NC3H7+H<=>C2H5+CH3                           3.70E+24  -2.92    12505.0
 NC3H7+H<=>C3H6+H2                            1.80E+12   0.00       0.0
 NC3H7+O<=>C2H5+CH2O                          9.60E+13   0.00       0.0
 NC3H7+OH<=>C3H6+H2O                          2.40E+13   0.00       0.0
 NC3H7+O2<=>C3H6+HO2                          9.00E+10   0.00       0.0
 NC3H7+HO2<=>C2H5+OH+CH2O                     2.40E+13   0.00       0.0
 NC3H7+CH3<=>CH4+C3H6                         1.10E+13   0.00       0.0
!
!
!
!
!
! REACTIONS OF C4H7
!
 C4H7+H(+M)<=>C4H81(+M)                       3.60E+13   0.00         0.0
 LOW  / 3.01E+48  -9.32      5833.6   /
 TROE / 0.498  1314.0  1314.0 50000.0 /
 H2/2/ H2O/6/ CH4/2/ CO/1.5/ CO2/2/ C2H6/3/ AR/0.7/
 C4H7+H<=>CH3+AC3H5                           2.00E+21  -2.00     11000.0
 C4H7+HO2<=>CH2O+OH+AC3H5                     2.40E+13   0.00         0.0
 C4H7+HCO<=>C4H81+CO                          6.00E+13   0.00         0.0
!
!
! REACTIONS OF C4H8
!
 C4H81+H(+M)<=>PC4H9(+M)                      1.33E+13   0.00      3260.7
 LOW  / 6.26E+38  -6.66      7000.0   /
 TROE / 1.000  1000.0  1310.0 48097.0 /
 H2/2/ H2O/6/ CH4/2/ CO/1.5/ CO2/2/ C2H6/3/ AR/0.7/
!
 C4H81+H<=>C2H4+C2H5                          1.60E+22  -2.39     11180.0
 C4H81+H<=>C3H6+CH3                           3.20E+22  -2.39     11180.0
 C4H81+H<=>C4H7+H2                            6.50E+05   2.54      6756.0
 C4H81+O<=>NC3H7+HCO                          3.30E+08   1.45      -402.0
 C4H81+O<=>C4H7+OH                            1.50E+13   0.00      5760.0
    DUPLICATE
 C4H81+O<=>C4H7+OH                            2.60E+13   0.00      4470.0
    DUPLICATE
 C4H81+OH<=>C4H7+H2O                          7.00E+02   2.66       527.0
 C4H81+O2<=>C4H7+HO2                          2.00E+13   0.00     50930.0
 C4H81+HO2<=>C4H7+H2O2                        1.00E+12   0.00     14340.0
 C4H81+CH3<=>C4H7+CH4                         4.50E-01   3.65      7153.0
!
!
!
! REACTIONS OF PC4H9
!
 !PC4H9<=>C2H5+C2H4                           2.500E+11    0.000  28824.09
 PC4H9+H<=>C2H5+C2H5                          3.70E+24  -2.92      12505.0
 PC4H9+H<=>C4H81+H2                           1.80E+12   0.00         0.0
 PC4H9+O<=>NC3H7+CH2O                         9.60E+13   0.00         0.0
 PC4H9+OH<=>C4H81+H2O                         2.40E+13   0.00         0.0
 PC4H9+O2<=>C4H81+HO2                         2.70E+11   0.00         0.0
 PC4H9+HO2<=>NC3H7+OH+CH2O                    2.40E+13   0.00         0.0
 PC4H9+CH3<=>C4H81+CH4                        1.10E+13   0.00         0.0
!
!=========================================================================
!                    REACTIONS FOR N-ALKANE (N>5) CRACKING
!=========================================================================
 C5H9=>AC3H5+C2H4                                2.500E+13    0.000  30019.12
 C5H9=>C2H3+C3H6                                 2.500E+13    0.000  30019.12
 C5H10+H(+M)<=>PXC5H11(+M)                    1.33E+13    0.00     3260.7
 LOW  / 6.26E+38   -6.66     7000.0   /
 TROE / 1.000  1000.0  1310.0 48097.0 /
 H2/2/ H2O/6/ CH4/2/ CO/1.5/ CO2/2/ C2H6/3/ AR/0.7/
 C5H10+H<=>C2H4+NC3H7                         8.00E+21   -2.39    11180.0
 C5H10+H<=>C3H6+C2H5                          1.60E+22   -2.39    11180.0
 C2H4+NC3H7<=>PXC5H11                         3.00E+11    0.00     7300.0
 C6H12+H(+M)<=>PXC6H13(+M)                    1.33E+13    0.00   3260.7
 LOW  / 6.26E+38  -6.66   7000.0      /
 TROE / 1.000  1000.0  1310.0 48097.0 /
 H2/2/ H2O/6/ CH4/2/ CO/1.5/ CO2/2/ C2H6/3/ AR/0.7/
 C6H12+H<=>C2H4+PC4H9                         8.00E+21   -2.39  11180.0
 C6H12+H<=>C3H6+NC3H7                         1.60E+22   -2.39  11180.0
 C2H4+PC4H9<=>PXC6H13                         3.00E+11    0.00   7300.0
 C7H14+H(+M)<=>PXC7H15(+M)                    1.33E+13    0.00   3260.7
 LOW  / 6.26E+38  -6.66   7000.0      /
 TROE / 1.000  1000.0  1310.0 48097.0 /
 H2/2/ H2O/6/ CH4/2/ CO/1.5/ CO2/2/ C2H6/3/ AR/0.7/
 C7H14+H<=>C2H4+PXC5H11                       8.00E+21   -2.39  11180.0
 C7H14+H<=>C3H6+PC4H9                         1.60E+22   -2.39  11180.0
 C2H4+PXC5H11<=>PXC7H15                       3.00E+11    0.00   7300.0
 C8H16+H(+M)<=>PXC8H17(+M)                    1.33E+13    0.00   3260.7
 LOW  / 6.26E+38  -6.66   7000.0      /
 TROE / 1.000  1000.0  1310.0 48097.0 /
 H2/2/ H2O/6/ CH4/2/ CO/1.5/ CO2/2/ C2H6/3/ AR/0.7/
 C8H16+H<=>C2H4+PXC6H13                       8.00E+21   -2.39  11180.0
 C8H16+H<=>C3H6+PXC5H11                       1.60E+22   -2.39  11180.0
 C2H4+PXC6H13<=>PXC8H17                       3.00E+11    0.00   7300.0
 C9H18+H(+M)<=>PXC9H19(+M)                    1.33E+13    0.00   3260.7
 LOW  / 6.26E+38  -6.66   7000.0      /
 TROE / 1.000  1000.0  1310.0 48097.0 /
 H2/2/ H2O/6/ CH4/2/ CO/1.5/ CO2/2/ C2H6/3/ AR/0.7/
 C9H18+H<=>C2H4+PXC7H15                       8.00E+21   -2.39  11180.0
 C9H18+H<=>C3H6+PXC6H13                       1.60E+22   -2.39  11180.0
 C2H4+PXC7H15<=>PXC9H19                       3.00E+11    0.00   7300.0
 C10H20+H(+M)<=>PXC10H21(+M)                  1.33E+13    0.00   3260.7
 LOW  / 6.26E+38  -6.66   7000.0      /
 TROE / 1.000  1000.0  1310.0 48097.0 /
 H2/2/ H2O/6/ CH4/2/ CO/1.5/ CO2/2/ C2H6/3/ AR/0.7/
 C10H20+H<=>C2H4+PXC8H17                      8.00E+21   -2.39  11180.0
 C10H20+H<=>C3H6+PXC7H15                      1.60E+22   -2.39  11180.0
 C2H4+PXC8H17<=>PXC10H21                      3.00E+11    0.00   7300.0
 C12H24<=>PXC7H15+C5H9                        3.500E+16   0.000  70936.90
 C2H4+PXC10H21<=>PXC12H25                     3.00E+11    0.00   7300.0
 PXC12H25<=>S3XC12H25		                3.67E+12   -0.60  14400.0
 C3H6+PXC9H19<=>SXC12H25                      3.00E+11    0.00   7300.0
 C4H81+PXC8H17<=>SXC12H25                     3.00E+11    0.00   7300.0
 C5H10+PXC7H15<=>S3XC12H25                    3.00E+11    0.00   7300.0
 C10H20+C2H5<=>S3XC12H25                      3.00E+11    0.00   7300.0
 C6H12+PXC6H13<=>S3XC12H25                    3.00E+11    0.00   7300.0
 C9H18+NC3H7<=>S3XC12H25                      3.00E+11    0.00   7300.0
 C7H14+PXC5H11<=>S3XC12H25                    3.00E+11    0.00   7300.0
 C8H16+PC4H9<=>S3XC12H25                      3.00E+11    0.00   7300.0
!
!
!
!
! REACTIONS OF C12H26
!
 PXC10H21+C2H5<=>C12H26                      1.88E+14   -0.50      0.0
 PXC9H19+NC3H7<=>C12H26                      1.88E+14   -0.50      0.0
 PXC8H17+PC4H9<=>C12H26                      1.88E+14   -0.50      0.0
 PXC7H15+PXC5H11<=>C12H26                    1.88E+14   -0.50      0.0
 PXC6H13+PXC6H13<=>C12H26                    1.88E+14   -0.50      0.0
 C12H26+H<=>PXC12H25+H2                      1.30E+06    2.54   6756.0
 C12H26+H<=>SXC12H25+H2                      2.60E+06    2.40   4471.0
 C12H26+H<=>S3XC12H25+H2                     3.90E+06    2.40   4471.0
 C12H26+O<=>PXC12H25+OH                      1.90E+05    2.68   3716.0
 C12H26+O<=>SXC12H25+OH                      9.52E+04    2.71   2106.0
 C12H26+O<=>S3XC12H25+OH                     14.28E+04    2.71   2106.0
 C12H26+OH<=>PXC12H25+H2O                    3.40E+03    2.66    527.0
 C12H26+OH<=>SXC12H25+H2O                    7.40E+04    2.39    393.0
 C12H26+OH<=>S3XC12H25+H2O                   10.10E+04    2.39    393.0
 C12H26+O2<=>PXC12H25+HO2                    4.00E+13    0.00  50930.0
 C12H26+O2<=>SXC12H25+HO2                    8.00E+13    0.00  47590.0
 C12H26+O2<=>S3XC12H25+HO2                   12.00E+13    0.00  47590.0
 C12H26+HO2<=>PXC12H25+H2O2                  6.76E+04    2.55  16490.0
 C12H26+HO2<=>SXC12H25+H2O2                  8.90E+04    2.60  13910.0
 C12H26+HO2<=>S3XC12H25+H2O2                 8.850E+04    2.60  13910.0
 C12H26+CH3<=>PXC12H25+CH4                   1.81E+00    3.65   7153.0
 C12H26+CH3<=>SXC12H25+CH4                   6.00E+00    3.46   5480.0
 C12H26+CH3<=>S3XC12H25+CH4                  9.00E+00    3.46   5480.0
!
!
!LOW TEMPERATURE MECHANISM
!
PXC12H25+O2=>C12H25O2                         5.000E+13    0.000      0.00
C12H25O2=>PXC12H25+O2                         2.750E+13    0.000   27400.0
SXC12H25+O2=>C12H25O2                         5.000E+13    0.000      0.00
C12H25O2=>SXC12H25+O2                         2.750E+13    0.000   27400.0
S3XC12H25+O2=>C12H25O2                        5.000E+13    0.000      0.00
C12H25O2=>S3XC12H25+O2                        2.750E+13    0.000   27400.0
!
!
C12H25O2=>C12OOH                              1.510E+12     0.00   19000.0
C12OOH=>C12H25O2                              1.000E+11     0.000  11500.00
PXC12H25+O2=>C12H24+HO2                      3.500E+11      0.000   6000.00
C12H24+HO2=>PXC12H25+O2                      3.160E+11      0.00    19500.0
SXC12H25+O2=>C12H24+HO2                      3.500E+11      0.000   6000.00
C12H24+HO2=>SXC12H25+O2                      3.160E+11      0.00    19500.0
S3XC12H25+O2=>C12H24+HO2                     3.500E+11      0.000   6000.00
C12H24+HO2=>S3XC12H25+O2                     3.160E+11      0.00    19500.0
!
!
C12OOH+O2=>O2C12H24OOH                          4.6E+10    0.00  0000.00
O2C12H24OOH=>C12OOH+O2                          2.510E+13  0.00  27400.0
O2C12H24OOH<=>OC12H23OOH+OH                      8.900E+10    0.000  17000
OC12H23OOH=>3C2H4+C2H5+2CH2CHO+OH               1.80E+15     0.000  42065
!
!
END
!

