ELEMENTS
H  C  O  N   AR
END
SPECIES
C7H16             O2                N2                CO2               H2O               
CO                H2                CH4               C2H2              C2H4              
H2O2              HO2               OH                H                 O                 
CH3               CH3O              CH2               CH2O              CH3O2             
CH4O2             HCO               C7H15-1           C7H15-2           C7H15O2           
C7H14O2H          C7H14O2HO2        C7KET12           C6H12             C5H11CHO          
C5H11CO           C5H11             C4H9              C3H7              C3H6              
C3H5              C3H4              C2H3              C2H5              C2H6              
NO                N                 AR
END
REACTIONS
C7H16+H=C7H15-1+H2                                    5.6000000E+07   2.00000   7.6670000E+03
C7H16+H=C7H15-2+H2                                    4.3800000E+07   2.00000   4.7500000E+03
C7H16+OH=C7H15-1+H2O                                  8.6100000E+09   1.10000   1.8150000E+03
C7H16+OH=C7H15-2+H2O                                  4.5000000E+09   1.30000   6.9050000E+02
C7H16+HO2=C7H15-1+H2O2                                1.1200000E+13   0.00000   1.9300000E+04
C7H16+HO2=C7H15-2+H2O2                                1.6500000E+13   0.00000   1.6950000E+04
C7H16+O2=C7H15-1+HO2                                  2.5000000E+13   0.00000   4.8810000E+04
C7H16+O2=C7H15-2+HO2                                  2.0000000E+14   0.00000   4.7380000E+04
C7H15-1+O2=C7H15O2                                    2.0000000E+12   0.00000   0.0000000E+00
C7H15-2+O2=C7H15O2                                    2.0000000E+12   0.00000   0.0000000E+00
C7H15O2=C7H14O2H                                      6.0000000E+11   0.00000   2.0380000E+04
C7H14O2H+O2=C7H14O2HO2                                4.6000000E+11   0.00000   0.0000000E+00
C7H14O2HO2=C7KET12+OH                                 1.0000000E+09   0.00000   7.4800000E+03
C7KET12=C5H11CHO+CH2O+O                               1.0500000E+16   0.00000   4.1100000E+04
C5H11CHO+O2=C5H11CO+HO2                               2.0000000E+13   0.50000   4.2200000E+04
C5H11CHO+OH=C5H11CO+H2O                               1.0000000E+13   0.00000   0.0000000E+00
C5H11CHO+H=C5H11CO+H2                                 4.0000000E+13   0.00000   4.2000000E+03
C5H11CHO+O=C5H11CO+OH                                 5.0000000E+12   0.00000   1.7900000E+03
C5H11CHO+HO2=C5H11CO+H2O2                             2.8000000E+12   0.00000   1.3600000E+04
C5H11CHO+CH3=C5H11CO+CH4                              1.7000000E+12   0.00000   8.4400000E+03
C5H11CHO+CH3O2=C5H11CO+CH4O2                          1.0000000E+12   0.00000   9.5000000E+03
C5H11CO=C5H11+CO                                      1.0000000E+11   0.00000   9.6000000E+03
C5H11=C2H4+C3H7                                       3.2000000E+13   0.00000   2.8300000E+04
C7H15-1=C2H4+C5H11                                    2.5000000E+13   0.00000   2.8810000E+04
C7H15-2=C4H9+C3H6                                     2.2000000E+13   0.00000   2.8100000E+04
C7H15-1=C7H15-2                                       3.6000000E+16   0.00000   8.0700000E+04
C4H9=C2H5+C2H4                                        2.5000000E+13   0.00000   2.8810000E+04
C3H7=C2H4+CH3                                         9.6000000E+13   0.00000   3.0950000E+04
C3H7=C3H6+H                                           1.2500000E+14   0.00000   3.6900000E+04
C3H7+O2=C3H6+HO2                                      1.0000000E+12   0.00000   4.9800000E+03
C3H6=C2H3+CH3                                         3.1500000E+15   0.00000   8.5500000E+04
C3H6+H=C3H5+H2                                        5.0000000E+12   0.00000   1.5000000E+03
C3H6+CH3=C3H5+CH4                                     9.0000000E+12   0.00000   8.4800000E+03
C3H5=C3H4+H                                           4.0000000E+13   0.00000   6.9760000E+04
C3H5+H=C3H4+H2                                        1.0000000E+13   0.00000   0.0000000E+00
C3H5+O2=C3H4+HO2                                      6.0000000E+11   0.00000   1.0000000E+04
C3H4+OH=C2H3+CH2O                                     1.0000000E+12   0.00000   0.0000000E+00
C3H4+OH=C2H4+HCO                                      1.0000000E+12   0.00000   0.0000000E+00
CH3O+CO=CH3+CO2                                       1.5700000E+14   0.00000   1.1800000E+04
CH3O+M=CH2O+H+M                                       1.0000000E+14   0.00000   2.5000000E+04
CH3O+H=CH2O+H2                                        2.0000000E+13   0.00000   0.0000000E+00
CH3O+OH=CH2O+H2O                                      1.0000000E+13   0.00000   0.0000000E+00
CH3O+O=CH2O+OH                                        1.0000000E+13   0.00000   0.0000000E+00
CH3O+O2=CH2O+HO2                                      1.2000000E+11   0.00000   2.6000000E+03
CH3+HO2=CH3O+OH                                       5.0000000E+13   0.00000   0.0000000E+00
CH3+O2=CH3O+O                                         4.6700000E+13   0.00000   3.0000000E+04
CH3+O2=CH2O+OH                                        3.8000000E+11   0.00000   9.0000000E+03
CH3+O2=CH3O2                                          3.0200000E+59 -15.00000   1.7204000E+04
CH3O2+HO2=CH4O2+O2                                    4.6300000E+11   0.00000  -2.5830000E+03
CH3O2+CH4=CH4O2+CH3                                   1.8100000E+11   0.00000   1.8480000E+04
CH3O2+CH3=CH3O+CH3O                                   2.4100000E+13   0.00000   0.0000000E+00
CH3O2+O=CH3O+O2                                       3.6100000E+13   0.00000   0.0000000E+00
CH3O2+H=CH3O+OH                                       9.6400000E+13   0.00000   0.0000000E+00
CH3O2+CH2O=CH4O2+HCO                                  1.0000000E+12   0.00000   1.1665000E+04
CH3O2+C2H6=CH4O2+C2H5                                 2.9500000E+11   0.00000   1.4944000E+04
CH3O2+CH3O2=CH3O+CH3O+O2                              2.8000000E+11   0.00000  -7.8000000E+02
CH3O2+H2O2=CH4O2+HO2                                  2.4000000E+12   0.00000   1.0000000E+04
CH4O2=CH3O+OH                                         3.0000000E+16   0.00000   4.2920000E+04
CH3O2+C2H4=C2H3+CH4O2                                 7.1000000E+11   0.00000   1.7110000E+04
CH4O2+OH=CH3O2+H2O                                    1.0000000E+13   0.00000  -2.5800000E+02
CH4O2+O=CH3O2+OH                                      2.0000000E+13   0.00000   4.7500000E+03
CH3+O=CH2O+H                                          8.0000000E+13   0.00000   0.0000000E+00
CH3+OH=CH2+H2O                                        7.5000000E+06   2.00000   5.0000000E+03
CH3+OH=CH2O+H2                                        4.0000000E+12   0.00000   0.0000000E+00
CH3O+H=CH3+OH                                         1.0000000E+14   0.00000   0.0000000E+00
CO+O+M=CO2+M                                          6.1700000E+14   0.00000   3.0000000E+03
CO+OH=CO2+H                                           3.5100000E+07   1.30000  -7.5800000E+02
CO+O2=CO2+O                                           1.6000000E+13   0.00000   4.1000000E+04
HO2+CO=CO2+OH                                         5.8000000E+13   0.00000   2.2930000E+04
H2+O2=OH+OH                                           1.7000000E+13   0.00000   4.7780000E+04
H2+OH=H2O+H                                           1.1700000E+09   1.30000   3.6260000E+03
O+OH=O2+H                                             4.0000000E+14  -0.50000   0.0000000E+00
O+H2=OH+H                                             5.0600000E+04   2.67000   6.2900000E+03
H+HO2=O+H2O                                           3.1000000E+10   0.00000   3.5900000E+03
O+OH+M=HO2+M                                          1.0000000E+16   0.00000   0.0000000E+00
         H2O/21.0000/CO2/5.0000/H2/3.3000/CO/2.0000/
H+O2+M=HO2+M                                          3.6000000E+17  -0.72000   0.0000000E+00
         H2O/21.0000/CO2/5.0000/H2/3.3000/CO/2.0000/
OH+HO2=H2O+O2                                         7.5000000E+12   0.00000   0.0000000E+00
H+HO2=OH+OH                                           1.7000000E+14   0.00000   8.7500000E+02
O+HO2=O2+OH                                           1.4000000E+13   0.00000   1.0730000E+03
OH+OH=O+H2O                                           6.0000000E+08   1.30000   0.0000000E+00
H+H+M=H2+M                                            1.0000000E+18  -1.00000   0.0000000E+00
         H2/0.0000/H2O/0.0000/CO2/0.0000/
H+H+H2=H2+H2                                          9.2000000E+16  -0.60000   0.0000000E+00
H+H+H2O=H2+H2O                                        6.0000000E+19  -1.25000   0.0000000E+00
H+H+CO2=H2+CO2                                        5.4900000E+20  -2.00000   0.0000000E+00
H+OH+M=H2O+M                                          1.6000000E+22  -2.00000   0.0000000E+00
H+O+M=OH+M                                            6.2000000E+16  -0.60000   0.0000000E+00
O+O+M=O2+M                                            1.8900000E+13   0.00000  -1.7880000E+03
H+HO2=H2+O2                                           1.2500000E+13   0.00000   0.0000000E+00
HO2+HO2=H2O2+O2                                       2.0000000E+12   0.00000   0.0000000E+00
H2O2+M=OH+OH+M                                        4.3000000E+16   0.00000   4.5500000E+04
         H2O/21.0000/CO2/5.0000/H2/3.3000/CO/2.0000/
H2O2+H=HO2+H2                                         1.6000000E+12   0.00000   3.8000000E+03
H2O2+OH=H2O+HO2                                       1.0000000E+13   0.00000   1.8000000E+03
H2O2+H=H2O+OH                                         1.0000000E+13   0.00000   3.5900000E+03
H2O2+O=H2O+O2                                         8.4000000E+11   0.00000   4.2600000E+03
H2O2+O=OH+HO2                                         2.0000000E+13   0.00000   5.9000000E+03
H2+HO2=H2O+OH                                         6.5000000E+11   0.00000   1.8800000E+04
N+NO=N2+O                                             3.2700000E+12   0.30000   0.0000000E+00
N+O2=NO+O                                             6.4000000E+09   1.00000   6.2800000E+03
N+OH=NO+H                                             7.3330000E+13   0.00000   1.1200000E+03
CH2O+O2=HCO+HO2                                       6.2000000E+13   0.00000   3.9000000E+04
CH2O+O=HCO+OH                                         1.8000000E+13   0.00000   3.0800000E+03
CH2O+H=HCO+H2                                         2.1900000E+08   1.80000   3.0000000E+03
CH2O+OH=HCO+H2O                                       2.4300000E+10   1.20000  -4.4700000E+02
CH2O+HO2=HCO+H2O2                                     3.0000000E+12   0.00000   8.0000000E+03
CH2O+M=CO+H2+M                                        6.2500000E+15   0.00000   6.9540000E+04
CH2O+M=HCO+H+M                                        4.0000000E+23  -1.66000   9.1120000E+04
HCO+HCO=CH2O+CO                                       3.0100000E+13   0.00000   0.0000000E+00
HCO+OH=H2O+CO                                         1.0000000E+14   0.00000   0.0000000E+00
HCO+H=H2+CO                                           1.1900000E+13   0.30000   0.0000000E+00
HCO+O=OH+CO                                           3.0000000E+13   0.00000   0.0000000E+00
HCO+O=H+CO2                                           3.0000000E+13   0.00000   0.0000000E+00
HCO+O2=HO2+CO                                         3.3000000E+13  -0.40000   0.0000000E+00
HCO+M=H+CO+M                                          1.8700000E+17  -1.00000   1.7000000E+04
HCO+HO2=CO2+OH+H                                      3.0000000E+13   0.00000   0.0000000E+00
CH4+O2=CH3+HO2                                        7.9000000E+13   0.00000   5.6000000E+04
CH4+H=CH3+H2                                          6.6000000E+08   1.60000   1.0840000E+04
CH4+OH=CH3+H2O                                        1.6000000E+06   2.10000   2.4600000E+03
CH4+O=CH3+OH                                          1.0200000E+09   1.50000   8.6040000E+03
CH4+HO2=CH3+H2O2                                      1.0000000E+13   0.00000   1.8700000E+04
CH4+CH2=CH3+CH3                                       4.0000000E+12   0.00000  -5.7000000E+02
CH3+CH2O=CH4+HCO                                      5.5000000E+03   2.80000   6.0000000E+03
CH3+HCO=CH4+CO                                        1.2000000E+14   0.00000   0.0000000E+00
CH3+H=CH4                                             1.9000000E+36  -7.00000   9.0500000E+03
CH3+H=CH2+H2                                          9.0000000E+13   0.00000   1.5100000E+04
CH3+CH3O=CH4+CH2O                                     4.3000000E+14   0.00000   0.0000000E+00
CH3+CH3=C2H6                                          2.7000000E+53 -12.00000   1.9400000E+04
CH3+CH3=C2H5+H                                        4.9900000E+12   0.10000   1.0600000E+04
CH2+OH=CH2O+H                                         2.5000000E+13   0.00000   0.0000000E+00
CH2+O2=HCO+OH                                         4.3000000E+10   0.00000  -5.0000000E+02
CH2+O2=CO2+H2                                         6.9000000E+11   0.00000   5.0000000E+02
CH2+O2=CO+H2O                                         2.0000000E+10   0.00000  -1.0000000E+03
CH2+O2=CH2O+O                                         5.0000000E+13   0.00000   9.0000000E+03
CH2+O2=CO2+H+H                                        1.6000000E+12   0.00000   1.0000000E+03
CH2+O2=CO+OH+H                                        8.6000000E+10   0.00000  -5.0000000E+02
CH2+CH2=C2H2+H2                                       1.2000000E+13   0.00000   8.0000000E+02
CH2+CH2=C2H2+H+H                                      1.2000000E+14   0.00000   8.0000000E+02
CH2+CO2=CH2O+CO                                       1.0000000E+11   0.00000   1.0000000E+03
CH3+HCO=CH2O+CH2                                      3.0000000E+13   0.00000   0.0000000E+00
CH3+C2H4=CH4+C2H3                                     6.6200000E+00   3.70000   9.4820000E+03
CH3+CH3=C2H4+H2                                       1.0000000E+15   0.00000   3.1000000E+04
CH3+CH2=C2H4+H                                        3.0000000E+13   0.00000  -5.7000000E+02
C2H4+H=C2H3+H2                                        1.1000000E+14   0.00000   8.5000000E+03
C2H4+O=CH3+HCO                                        1.6000000E+09   1.20000   7.4600000E+02
C2H4+O=CH2O+CH2                                       3.0000000E+04   1.88000   1.8000000E+02
C2H4+O=C2H3+OH                                        1.5100000E+07   1.91000   3.7900000E+03
C2H4+OH=CH2O+CH3                                      6.0000000E+13   0.00000   9.6000000E+02
C2H4+HO2=C2H3+H2O2                                    7.1000000E+11   0.00000   1.7110000E+04
C2H4+OH=C2H3+H2O                                      8.0200000E+13   0.00000   5.9550000E+03
C2H4+M=C2H2+H2+M                                      1.5000000E+15   0.00000   5.5800000E+04
C2H4+M=C2H3+H+M                                       2.6000000E+17   0.00000   9.6570000E+04
C2H4+H=C2H5                                           2.6000000E+43  -9.25000   5.2580000E+04
C2H6+O2=C2H5+HO2                                      1.0000000E+13   0.00000   4.8960000E+04
C2H5+O2=C2H4+HO2                                      2.0000000E+10   0.00000  -2.2000000E+03
C2H4+O2=C2H3+HO2                                      4.2000000E+14   0.00000   5.7590000E+04
C2H4+C2H4=C2H5+C2H3                                   5.0000000E+14   0.00000   6.4700000E+04
C2H5+HO2=C2H4+H2O2                                    3.0000000E+11   0.00000   0.0000000E+00
C2H2+O2=HCO+HCO                                       4.0000000E+12   0.00000   2.8000000E+04
C2H2+O=CH2+CO                                         1.0200000E+07   2.00000   1.9000000E+03
C2H2+H+M=C2H3+M                                       5.5400000E+12   0.00000   2.4100000E+03
C2H3+H=C2H2+H2                                        4.0000000E+13   0.00000   0.0000000E+00
C2H3+O2=CH2O+HCO                                      4.0000000E+12   0.00000  -2.5000000E+02
C2H3+OH=C2H2+H2O                                      3.0000000E+13   0.00000   0.0000000E+00
C2H3+CH2=C2H2+CH3                                     3.0000000E+13   0.00000   0.0000000E+00
C2H3+HCO=C2H4+CO                                      6.0340000E+13   0.00000   0.0000000E+00
C2H3+C2H3=C2H2+C2H4                                   1.4500000E+13   0.00000   0.0000000E+00
C2H3+O=C2H2+OH                                        1.0000000E+13   0.00000   0.0000000E+00
C2H2+OH=CH3+CO                                        4.8300000E-04   4.00000  -2.0000000E+03
C2H3=C2H2+H                                           4.6000000E+40  -8.80000   4.6200000E+04
END
