!NC7_2B MECHANISM
! CURRAN, H. J., PITZ, W. J., AND WESTBROOK, C. K., 2002
! UCRL-WEB-204236
! REVIEW AND RELEASE DATE: MAY 19, 2004.
!
! 9/25/02 DELETED UNUSED SPECIES O2HC4H7CHO, IC3H6CHCHO, IC3H6CHCO
!         AND AC3H5CHCHO
ELEMENTS
H C O N AR
END
SPECIES
H        H2       O        O2       OH      
H2O      N2       CO       HCO      CO2     
CH3      CH4      HO2      H2O2     CH2O    
CH3O     C2H6     C2H4     C2H5     CH2     
CH       C2H      C2H2     C2H3     CH3OH       
CH2OH    CH2CO    HCCO     C2H5OH   PC2H4OH     
SC2H4OH  CH3CO    CH2CHO   CH3CHO   C3H4-A      
C3H4-P   C3H6     C4H6     NC3H7    IC3H7       
C3H8     IC4H7    IC4H8    C4H7     C4H8-2       
C4H8-1   SC4H9    PC4H9    TC4H9    IC4H9       
IC4H10   C4H10    CH3COCH3 CH3COCH2 C2H5CHO     
C2H5CO   C5H9     C5H10-1  C5H10-2  IC5H12      
AC5H11   BC5H11   CC5H11   DC5H11   AC5H10      
BC5H10   CC5H10   IC5H9    NC5H12   C5H11-1      
C5H11-2  C5H11-3  NEOC5H12 NEOC5H11 C2H5O       
CH3O2    C2H5O2       CH3O2H       C2H5O2H      C2H3O1-2    
CH3CO2    C2H4O1-2     C2H4O2H      O2C2H4OH    
CH3CO3     CH3CO3H     C2H3CO       C2H3CHO      C3H5O       
C3H6OOH1-2 C3H6OOH1-3  C3H6OOH2-1   C3H6OOH1-2O2 C3H6OOH1-3O2    
C3H6OOH2-1O2 NC3H7O    IC3H7O       NC3H7O2H     IC3H7O2H    
NC3H7O2      IC3H7O2      C3H6O1-3  IC4H8O       IC4H8OH     
IO2C4H8OH    IC4H7O       C4H7O     C4H8OH-1     C4H8OH-2     
C4H8OH-1O2   C4H8OH-2O2   C4H8OOH1-2O2 C4H8OOH1-3O2 C4H8OOH1-4O2    
C4H8OOH2-1O2 C4H8OOH2-3O2 C4H8OOH2-4O2 TC4H8OOH-IO2 IC4H8OOH-IO2    
IC4H8OOH-TO2 C4H8OOH1-2   C4H8OOH1-3   C4H8OOH1-4   C4H8OOH2-1  
C4H8OOH2-3   C4H8OOH2-4   IC4H8O2H-I   IC4H8O2H-T   TC4H8O2H-I  
C4H8O1-2     C4H8O1-3     C4H8O1-4     C4H8O2-3     CC4H8O      
PC4H9O       SC4H9O       IC4H9O       TC4H9O       PC4H9O2H    
SC4H9O2H     IC4H9O2H     TC4H9O2H     TC4H9O2      IC4H9O2     
SC4H9O2      PC4H9O2      CH3COCH2O2   CH3COCH2O2H  CH3COCH2O   
NEOC5KETOX   NEOC5KEJOL   AC5H11O2     BC5H11O2     CC5H11O2    
DC5H11O2     AC5H11O2H    BC5H11O2H    CC5H11O2H    DC5H11O2H   
AC5H11O      BC5H11O      CC5H11O      DC5H11O      AC5H10OOH-A     
AC5H10OOH-B  AC5H10OOH-C  AC5H10OOH-D  BC5H10OOH-A  BC5H10OOH-C     
BC5H10OOH-D  CC5H10OOH-A  CC5H10OOH-B  CC5H10OOH-D  DC5H10OOH-A     
DC5H10OOH-B  DC5H10OOH-C  AC5H10OOH-AO2 AC5H10OOH-BO2 AC5H10OOH-CO2   
AC5H10OOH-DO2 BC5H10OOH-AO2 BC5H10OOH-CO2 BC5H10OOH-DO2 CC5H10OOH-AO2   
CC5H10OOH-BO2 CC5H10OOH-DO2 DC5H10OOH-AO2 DC5H10OOH-BO2 DC5H10OOH-CO2   
A-AC5H10O    A-BC5H10O    A-CC5H10O    A-DC5H10O    B-CC5H10O   
B-DC5H10O    C-DC5H10O    C5H11O2-1    C5H11O2-2    C5H11O2-3    
C5H11O2H-1   C5H11O2H-2   C5H11O2H-3   C5H11O-1     C5H11O-2     
C5H11O-3     C5H10OOH1-2  C5H10OOH1-3  C5H10OOH1-4  C5H10OOH1-5     
C5H10OOH2-1  C5H10OOH2-3  C5H10OOH2-4  C5H10OOH2-5  C5H10OOH3-2     
C5H10OOH3-1  C5H10OOH1-2O2 C5H10OOH1-3O2 C5H10OOH1-4O2 C5H10OOH1-5O2   
C5H10OOH2-1O2 C5H10OOH2-3O2 C5H10OOH2-4O2 C5H10OOH2-5O2 C5H10OOH3-1O2   
C5H10OOH3-2O2 C5H10O1-2    C5H10O1-3    C5H10O1-4    C5H10O1-5   
C5H10O2-3    C5H10O2-4    NEOC5H11O2   NEOC5H11O2H  NEOC5H11O   
NEOC5H10OOH  NEOC5H10OOH-O2 NEO-C5H10O C3H5-A       C3H5-S      
C3H5-T       C3H3         C3H2         C3H6O1-2     HO2CHO      
O2CHO        OCHO         CH2-S        C3KET12     
C3KET13      C3KET21      NC4KET12     NC4KET13     NC4KET14    
NC4KET21     NC4KET23     NC4KET24     IC4KETII     IC4KETIT    
NEOC5KET     NC5KET12     NC5KET13     NC5KET14     NC5KET15    
NC5KET21     NC5KET23     NC5KET24     NC5KET25     NC5KET31    
NC5KET32     IC5KETAA     IC5KETAB     IC5KETAC     IC5KETAD    
IC5KETCA     IC5KETCB     IC5KETCD     IC5KETDA     IC5KETDB    
IC5KETDC     IC4H7-I1     C3H6OH       HOC3H6O2     O2C2H4O2H   
CH2O2HCHO    IC4H7OOH     IC3H5CHO     TC3H6OCHO    TC3H6CHO    
IC3H7CHO     IC4H7OH      IC3H6CO      IC4H6OH      IC3H5CO     
IC3H7CO      TC3H6O2CHO   TC3H6O2HCO   IC3H5O2HCHO  TC3H6OHCHO  
TC3H6OH      IC3H5OH      TC4H8CHO     O2C4H8CHO    O2HC4H8CO   
C3H5OH       CH2CCH2OH    NC3H7CHO     NC3H7CO     
CH2CH2COCH3  C2H5COCH2    C2H5COCH3    CH2CHOOHCOCH3 CH3CHOOHCOCH3   
CH3CHOOCOCH3 CH3CHCOCH3   C2H3COCH3    CH3CHCO      CH2CH2CHO   
C3H6CHO-3    C3H6CHO-2    C2H5CHCO     IC3H5COCH3   IC3H5COCH2  
AC3H4COCH3   SC3H5COCH2   CH3CHOCHO    CH3CHCHO     SC3H5CHO    
SC3H5CO      IC3H6CHO     C3H6CHO-1    C2H5COC2H5   C2H5COC2H4P     
C2H5COC2H4S  C2H5COC2H3   PC2H4COC2H3  SC2H4COC2H3    
IC3H6CHCOCH3 AC3H5CHCOCH3 IC3H6CHCOCH2    
NC3H7COCH3   NC3H7COCH2   C3H6COCH3-1  C3H6COCH3-2  C3H6COCH3-3  
IC3H7COCH3   IC3H7COCH2   IC3H6COCH3   TC3H6COCH3   NC3H7COC2H5     
C3H6COC2H5-1 C3H6COC2H5-2 C3H6COC2H5-3 NC3H7COC2H4P NC3H7COC2H4S    
IC3H7COC2H5  IC3H6COC2H5  TC3H6COC2H5  IC3H7COC2H4P IC3H7COC2H4S    
IC3H7COC2H3  IC3H6COC2H3  TC3H6COC2H3  IC3H5COC2H5  AC3H4COC2H5     
IC3H5COC2H4P IC3H5COC2H4S NC4H9CHO     NC4H9CO      AC3H5CHO    
AC3H5CO      C2H3CHCHO    C4H8CHO-1    C4H8CHO-2    C4H8CHO-3    
C4H8CHO-4    NEOC5H9Q2    NEOC5H9Q2-N  IC4H6Q2-II   HOCH2O      
HOCHO        NC6H14       C6H13-1      C6H13-2      C6H13-3      
C6H12-1      C6H12-2      C6H12-3      C6H11        C6H12O1-2   
C6H12O1-3    C6H12O1-4    C6H12O1-5    C6H12O2-3    C6H12O2-4   
C6H12O2-5    C6H12O3-4    C6H13O2H-1   C6H13O2H-2   C6H13O2H-3   
C6H13O2-1    C6H13O2-2    C6H13O2-3    C6H12OOH1-2  C6H12OOH1-3     
C6H12OOH1-4  C6H12OOH1-5  C6H12OOH2-1  C6H12OOH2-3  C6H12OOH2-4     
C6H12OOH2-5  C6H12OOH2-6  C6H12OOH3-1  C6H12OOH3-2  C6H12OOH3-4     
C6H12OOH3-5  C6H12OOH3-6  C6H12OOH1-2O2 C6H12OOH1-3O2 C6H12OOH1-4O2   
C6H12OOH1-5O2 C6H12OOH2-1O2 C6H12OOH2-3O2 C6H12OOH2-4O2 C6H12OOH2-5O2   
C6H12OOH2-6O2 C6H12OOH3-1O2 C6H12OOH3-2O2 C6H12OOH3-4O2 C6H12OOH3-5O2   
C6H12OOH3-6O2 NC6KET12    NC6KET13     NC6KET14     NC6KET15    
NC6KET21     NC6KET23     NC6KET24     NC6KET25     NC6KET26    
NC6KET31     NC6KET32     NC6KET34     NC6KET35     NC6KET36    
C6H13O-1     C6H13O-2     C6H13O-3     C7H16        C7H15-1      
C7H15-2      C7H15-3      C7H15-4      C7H14-1      C7H14-2      
C7H14-3      C7H13        C7H15O2-1    C7H15O2-2    C7H15O2-3    
C7H15O2-4    C7H15O2H-1   C7H15O2H-2   C7H15O2H-3   C7H15O2H-4   
C7H15O-1     C7H15O-2     C7H15O-3     C7H15O-4     C7H14OOH1-2     
C7H14OOH1-3  C7H14OOH1-4  C7H14OOH1-5  C7H14OOH2-1  C7H14OOH2-3     
C7H14OOH2-4  C7H14OOH2-5  C7H14OOH2-6  C7H14OOH3-1  C7H14OOH3-2     
C7H14OOH3-4  C7H14OOH3-5  C7H14OOH3-6  C7H14OOH3-7  C7H14OOH4-1     
C7H14OOH4-2  C7H14OOH4-3  C7H14OOH1-2O2 C7H14OOH1-3O2 C7H14OOH1-4O2   
C7H14OOH1-5O2 C7H14OOH2-1O2 C7H14OOH2-3O2 C7H14OOH2-4O2 C7H14OOH2-5O2   
C7H14OOH2-6O2 C7H14OOH3-1O2 C7H14OOH3-2O2 C7H14OOH3-4O2 C7H14OOH3-5O2   
C7H14OOH3-6O2 C7H14OOH3-7O2 C7H14OOH4-1O2 C7H14OOH4-2O2 C7H14OOH4-3O2   
C7H14O1-2    C7H14O1-3    C7H14O1-4    C7H14O1-5    C7H14O2-3   
C7H14O2-4    C7H14O2-5    C7H14O2-6    C7H14O3-4    C7H14O3-5   
NC7KET12     NC7KET13     NC7KET14     NC7KET15     NC7KET21    
NC7KET23     NC7KET24     NC7KET25     NC7KET26     NC7KET31    
NC7KET32     NC7KET34     NC7KET35     NC7KET36     NC7KET37    
NC7KET41     NC7KET42     NC7KET43     NC5H11CHO    NC5H11CO    
C5H10CHO-1   C5H10CHO-2   C5H10CHO-3   C5H10CHO-4   C5H10CHO-5   
C4H7CHO1-4   C4H7CO1-4    C4H6CHO1-43  C4H6CHO1-44  NC4H9COCH3  
NC4H9COCH2   C4H8COCH3-1  C4H8COCH3-2  C4H8COCH3-3  C4H8COCH3-4  
C4H7OOH1-4   C4H7O1-4     C5H9OOH1-4   C5H9O1-4     C5H9OOH1-5  
C5H9O1-5     C6H11OOH1-4  C6H11O1-4    C6H11OOH1-5  C6H11O1-5   
C4H71-4      AR      
END
REACTIONS        !CAL/MOLE
  CH3+H(+M) = CH4(+M) 2.138E+15  -0.40  0.000E+00
!                REV / 1.054E+21 -1.40 1.079E+05 /
           LOW / 3.310E+30 -4.00 2108. /
     TROE/0.0  1.E-15  1.E-15  40./
     H2/2/ H2O/5/ CO/2/ CO2/3/
  CH4+H  =  CH3+H2  1.727E+04  3.00  8.224E+03
    REV /  6.610E+02  3.00  7.744E+03 /
  CH4+OH  =  CH3+H2O  1.930E+05  2.40  2.106E+03
    REV /  3.199E+04  2.40  1.678E+04 /
  CH4+O  =  CH3+OH  3.150E+12  0.50  1.029E+04
    REV /  5.296E+10  0.50  7.715E+03 /
  C2H6+CH3  =  C2H5+CH4  1.510E-07  6.00  6.047E+03
    REV /  9.649E-10  6.56  1.022E+04 /
  HCO+OH  =  CO+H2O  1.020E+14  0.00  0.000E+00
    REV /  2.896E+15  0.00  1.052E+05 /
  CO+OH  =  CO2+H  1.400E+05  1.95 -1.347E+03
    REV /  1.568E+07  1.95  2.099E+04 /
  H+O2  =  O+OH  1.970E+14  0.00  1.654E+04
    REV /  1.555E+13  0.00  4.250E+02 /
  O+H2  =  H+OH  5.080E+04  2.67  6.292E+03
    REV /  2.231E+04  2.67  4.197E+03 /
  O+H2O  =  OH+OH  2.970E+06  2.02  1.340E+04
    REV /  3.013E+05  2.02 -3.850E+03 /
  OH+H2  =  H+H2O  2.160E+08  1.51  3.430E+03
    REV /  9.352E+08  1.51  1.858E+04 /
 HCO+M = H+CO+M 1.860E+17 -1.00 1.700E+04
           REV / 6.467E+13 0.00 -4.420E+02 /
   H2/2.5/ H2O/12/ CO/1.9/ CO2/3.8/
 H2O2+OH = H2O+HO2  1.000E+12   0.00  0.000E+00
           REV / 1.685E+11  0.33 3.146E+04 /
    DUPLICATE
 C2H4+O = CH3+HCO  1.020E+07   1.88  1.790E+02
           REV / 2.851E+08  1.05 3.177E+04 /
 H+C2H4(+M) = C2H5(+M) 1.081E+12   0.45  1.822E+03
!          REV / 3.587E+14 -0.34 3.957E+04 /
           LOW / 1.112E+34 -5.00 4.448E+03 /
  TROE/1.0  1.000E-15  9.500E+01  2.000E+02/
  H2/2/ H2O/5/ CO/2/ CO2/3/
 CH3OH(+M) = CH3+OH(+M) 1.900E+16   0.00  9.173E+04
!          REV / 9.181E+10 1.00 7.450E+02 /
           LOW / 2.95E+44 -7.35 9.546E+04 /
  TROE/0.414  279.  5459. 1.00E+100/
  H2/2/ H2O/16/ CO/2/ CO2/3/
  C2H6+H  =  C2H5+H2  5.540E+02  3.50  5.167E+03
    REV /  1.355E-01  4.06  8.857E+03 /
  CH3OH+HO2  =  CH2OH+H2O2  3.980E+13  0.00  1.940E+04
    REV /  1.096E+09  1.33  1.125E+04 /
  C2H5+O2  =  C2H4+HO2  1.220E+30  -5.76  1.010E+04
    REV /  1.259E+30  -5.63  2.230E+04 /
  C2H6+OH  =  C2H5+H2O  5.800E+07  1.73  1.160E+03
    REV /  6.142E+04  2.29  2.000E+04 /
  C2H6+O  =  C2H5+OH  1.300E+07  2.13  5.190E+03
    REV /  1.397E+03  2.69  6.785E+03 /
  CH3+HO2  =  CH3O+OH  1.100E+13  0.00  0.000E+00
    REV /  4.780E+14  -0.35  2.455E+04 /
  CO+HO2  =  CO2+OH  3.010E+13  0.00  2.300E+04
    REV /  6.435E+15  -0.33  8.461E+04 /
 CH3+CH3(+M) = C2H6(+M) 9.214E+16  -1.17  6.358E+02
!          REV / 4.709E+21 -1.70 8.741E+04 /
           LOW / 1.135E+36 -5.246 1.705E+03 /
 TROE/0.405 1120. 69.6 1.E+15/
  H2/2/ H2O/5/ CO/2/ CO2/3/
 H2O+M = H+OH+M 1.837E+27 -3.00  1.226E+05
               REV/ 2.250E+22 -2.00  0.000E+00 /
   H2/2.5/ H2O/12/ CO/1.9/ CO2/3.8/
 H+O2(+M) = HO2(+M) 1.475E+12 0.60  0.000E+00
!              REV/ 5.053E+14 -0.07 4.996E+04 /
               LOW/ 3.500E+16 -0.41 -1.1160E+03 /
 TROE/5.0000E-01  1.0000E-30  1.0000E+30 1.00E+100/
 H2/2.5/ H2O/12/ CO/1.9/ CO2/3.8/
 CO+O(+M) = CO2(+M) 1.800E+10  0.00  2.384E+03
!              REV/ 1.670E+16 -1.00 1.301E+05 /
               LOW/ 1.350E+24 -2.788  4191. /
   H2/2.5/ H2O/12/ CO/1.9/ CO2/3.8/
  CO+O2  =  CO2+O  1.620E+13  0.00  4.770E+04
    REV /  1.433E+14  0.00  5.392E+04 /
  HCO+H  =  CO+H2  7.340E+13  0.00  0.000E+00
    REV /  4.813E+14  0.00  9.000E+04 /
  HCO+O  =  CO+OH  3.020E+13  0.00  0.000E+00
    REV /  8.697E+13  0.00  8.790E+04 /
  CH2O+M  =  HCO+H+M  6.283E+29  -3.57  9.320E+04
    REV /  2.660E+24  -2.57  4.270E+02 /
  CH2O+OH  =  HCO+H2O  3.430E+09  1.18 -4.470E+02
    REV /  1.186E+09  1.18  2.938E+04 /
  CH2O+H  =  HCO+H2  9.334E+08  1.50  2.976E+03
    REV /  7.453E+07  1.50  1.765E+04 /
  CH2O+O  =  HCO+OH  4.160E+11  0.57  2.762E+03
    REV /  1.459E+10  0.57  1.534E+04 /
  CH3+OH  =  CH2O+H2  2.250E+13  0.00  4.300E+03
    REV /  6.756E+14  0.00  7.602E+04 /
  CH3+O  =  CH2O+H  8.000E+13  0.00  0.000E+00
    REV /  1.055E+15  0.00  6.963E+04 /
  CH3+O2  =  CH3O+O  1.995E+18  -1.57  2.921E+04
    REV /  3.585E+18  -1.59 -1.631E+03 /
  CH2O+CH3  =  HCO+CH4  3.636E-06  5.42  9.980E+02
    REV /  7.584E-06  5.42  1.615E+04 /
  HCO+CH3  =  CH4+CO  1.210E+14  0.00  0.000E+00
    REV /  2.073E+16  0.00  9.048E+04 /
 CH3O(+M) = CH2O+H(+M)  5.450E+13   0.00  1.350E+04
!               REV / 3.812E+09 1.02 -7.489E+03 /
                LOW / 2.344E+25 -2.7  3.060E+04 /
 C2H4(+M) = C2H2+H2(+M)  1.800E+13   0.00  7.600E+04
!          REV / 1.877E+11 0.17 3.478E+04 /
           LOW / 1.500E+15 0.00 5.5443E+04 /
  HO2+O  =  OH+O2  3.250E+13  0.00  0.000E+00
    REV /  7.857E+14  -0.33  5.539E+04 /
  HCO+HO2  =  CH2O+O2  2.974E+10  0.33 -3.861E+03
    REV /  2.050E+13  0.00  3.895E+04 /
  CH3O+O2  =  CH2O+HO2  5.500E+10  0.00  2.424E+03
    REV /  1.318E+09  0.35  3.139E+04 /
  CH3+HO2  =  CH4+O2  3.600E+12  0.00  0.000E+00
    REV /  5.177E+15  -0.33  5.796E+04 /
  HCO+O2  =  CO+HO2  7.580E+12  0.00  4.100E+02
    REV /  9.029E+11  0.33  3.293E+04 /
  HO2+H  =  OH+OH  7.080E+13  0.00  3.000E+02
    REV /  1.352E+14  -0.33  3.957E+04 /
  HO2+H  =  H2+O2  1.660E+13  0.00  8.200E+02
    REV /  9.138E+14  -0.33  5.830E+04 /
  HO2+OH  =  H2O+O2  2.890E+13  0.00 -5.000E+02
    REV /  6.888E+15  -0.33  7.214E+04 /
  H2O2+O2  =  HO2+HO2  5.942E+17  -0.66  5.315E+04
    REV /  4.200E+14  0.00  1.198E+04 /
    DUPLICATE
 OH+OH(+M) = H2O2(+M) 1.236E+14   -.37  0.000E+00
!          REV / 3.138E+19 -1.37 5.186E+04 /
           LOW / 3.041E+30 -4.63 2049. /
 TROE /0.47 100. 2000. 1.0E+15/
 H2/2.5/ H2O/12/ CO/1.9/ CO2/3.8/
  H2O2+H  =  H2O+OH  2.410E+13  0.00  3.970E+03
    REV /  7.750E+12  0.00  7.470E+04 /
  CH4+HO2  =  CH3+H2O2  3.420E+11  0.00  1.929E+04
    REV /  3.365E+11  -0.33  2.502E+03 /
  CH2O+HO2  =  HCO+H2O2  5.820E-03  4.53  6.557E+03
    REV /  1.194E-02  4.20  4.921E+03 /
  OH+M = O+H+M  3.909E+22  -2.00  1.053E+05
        REV /  4.720E+18  -1.00  0.000E+00 /
H2/2.5/ H2O/12/ CO/1.9/ CO2/3.8/
 O2+M = O+O+M 6.473E+20 -1.50 1.215E+05
           REV / 6.170E+15 -0.50 0.000E+00 /
H2/2.5/ H2O/12/ CO/1.9/ CO2/3.8/
 H2+M = H+H+M 4.570E+19 -1.40  1.044E+05
               REV/ 2.423E+15 -0.40 -3.040E+03 /
H2/2.5/ H2O/12/ CO/1.9/ CO2/3.8/
 C2H3+H(+M) = C2H4(+M) 6.100E+12 0.27  2.800E+02
!               REV/ 1.692E+15 0.10 1.071E+05 /
              LOW / 9.800E+29 -3.86 3.320E+03 /
 TROE /0.782 208. 2663. 6095./
 C2H5+C2H3 = C2H4+C2H4 5.765E+14 -0.63 2.490E+03
                REV/ 4.820E+14  0.00 7.153E+04 /
 C2H2+H(+M) = C2H3(+M) 3.110E+11   0.58  2.589E+03
!               REV/ 2.028E+15 -0.42 4.446E+04 /
               LOW/ 2.254E+40 -7.269  6577. /
  TROE/ 1.0 1.E-15 675. 1.E+15/
  H2/2/ H2O/5/ CO/2/ CO2/3/
  C2H4+H  =  C2H3+H2  8.420E-03  4.62  2.583E+03
    REV /  5.723E-01  3.79  3.233E+03 /
  C2H4+OH  =  C2H3+H2O  2.050E+13  0.00  5.950E+03
    REV /  6.033E+15  -0.83  2.176E+04 /
  C2H2+M  =  C2H+H+M  4.200E+16  0.00  1.070E+05
    REV /  7.130E+07  2.08 -2.891E+04 /
  C2H2+O2  =  HCCO+OH  2.000E+08  1.50  3.010E+04
    REV /  2.232E+05  1.50  2.540E+04 /
  CH2+O2  =  CO+H2O  7.280E+19  -2.54  1.809E+03
    REV /  8.508E+20  -2.54  1.798E+05 /
  C2H2+OH  =  C2H+H2O  3.370E+07  2.00  1.400E+04
    REV /  4.671E+03  3.08  6.850E+02 /
  O+C2H2  =  C2H+OH  3.160E+15  -0.60  1.500E+04
    REV /  4.443E+10  0.48 -1.556E+04 /
  C2H2+O  =  CH2+CO  6.120E+06  2.00  1.900E+03
    REV /  1.152E+06  2.00  5.257E+04 /
  C2H+O2  =  HCO+CO  2.410E+12  0.00  0.000E+00
    REV /  1.328E+16  -1.08  1.541E+05 /
  C2H+O  =  CO+CH  1.810E+13  0.00  0.000E+00
    REV /  7.478E+16  -1.08  8.213E+04 /
  CH2+O2  =  HCO+OH  1.290E+20  -3.30  2.840E+02
    REV /  5.310E+19  -3.30  7.317E+04 /
  CH2+O  =  CO+H+H  5.000E+13  0.00  0.000E+00
    REV /  0.000E+00  0.00  0.000E+00 /
  CH2+H  =  CH+H2  1.000E+18  -1.56  0.000E+00
    REV /  7.026E+17  -1.56  2.990E+03 /
  CH2+OH  =  CH+H2O  1.130E+07  2.00  3.000E+03
    REV /  3.437E+07  2.00  2.114E+04 /
  CH2+O2  =  CO2+H+H  3.290E+21  -3.30  2.868E+03
    REV /  0.000E+00  0.00  0.000E+00 /
  CH+O2  =  HCO+O  3.300E+13  0.00  0.000E+00
    REV /  4.402E+13  0.00  7.199E+04 /
  CH3OH+OH  =  CH2OH+H2O  7.100E+06  1.80 -5.960E+02
    REV /  3.293E+01  3.46  2.272E+04 /
  CH3OH+H  =  CH3O+H2  3.600E+12  0.00  6.095E+03
    REV /  7.467E+12  -0.02  7.825E+03 /
  CH3OH+H  =  CH2OH+H2  1.440E+13  0.00  6.095E+03
    REV /  1.543E+07  1.66  1.425E+04 /
  CH3OH+CH3  =  CH2OH+CH4  3.190E+01  3.17  7.172E+03
    REV /  8.927E-04  4.83  1.581E+04 /
  CH3OH+O  =  CH2OH+OH  3.880E+05  2.50  3.080E+03
    REV /  1.826E-01  4.16  9.143E+03 /
  CH2OH+O2  =  CH2O+HO2  6.510E+05  2.27 -7.700E+02
    REV /  3.020E+10  0.94  2.177E+04 /
 CH2OH(+M) = CH2O+H(+M) 2.800E+14  -0.73  3.282E+04
!          REV / 3.792E+16 -1.39 5.402E+03 /
           LOW / 6.010E+33 -5.39 3.620E+04 /
      TROE/ 0.96 67.6 1855. 7543./
 C2H3+O2 = C2H2+HO2 2.120E-06 6.00 9.484E+03
           REV / 1.114E-07 6.33 1.757E+04 /
  H2O2+O  =  OH+HO2  9.550E+06  2.00  3.970E+03
    REV /  1.632E+05  2.33  1.818E+04 /
  C2H2+O  =  HCCO+H  1.430E+07  2.00  1.900E+03
    REV /  2.021E+05  2.00  1.331E+04 /
  C2H2+OH  =  CH2CO+H  2.190E-04  4.50 -1.000E+03
    REV /  2.161E-03  4.50  1.966E+04 /
  CH2CO+H  =  CH3+CO  1.100E+13  0.00  3.400E+03
    REV /  2.400E+12  0.00  4.020E+04 /
  CH2CO+O  =  CH2+CO2  1.750E+12  0.00  1.350E+03
    REV /  3.739E+12  0.00  5.369E+04 /
  CH2+O2  =  CH2O+O  3.290E+21  -3.30  2.868E+03
    REV /  3.862E+22  -3.30  6.318E+04 /
 CH2CO(+M) = CH2+CO(+M) 3.000E+14 0.00 7.098E+04
!               REV / 6.909E+08 1.00 -4.360E+03 /
                LOW / 3.600E+15 0.00  5.927E+04 /
  CH2CO+O  =  HCCO+OH  1.000E+13  0.00  8.000E+03
    REV /  1.432E+10  0.00 -1.255E+03 /
  CH2CO+OH  =  HCCO+H2O  1.000E+13  0.00  2.000E+03
    REV /  1.412E+11  0.00  9.995E+03 /
  CH2CO+H  =  HCCO+H2  2.000E+14  0.00  8.000E+03
    REV /  6.522E+11  0.00  8.400E+02 /
  HCCO+OH  =  HCO+HCO  1.000E+13  0.00  0.000E+00
    REV /  2.411E+14  0.00  4.036E+04 /
  HCCO+H  =  CH2-S +CO  1.100E+14  0.00  0.000E+00
    REV /  2.046E+12  0.89  2.783E+04 /
  HCCO+O  =  H+CO+CO  8.000E+13  0.00  0.000E+00
    REV /  0.000E+00  0.00  0.000E+00 /
  C2H6+O2  =  C2H5+HO2  6.030E+13  0.00  5.187E+04
    REV /  2.679E+08  0.89 -1.922E+03 /
  C2H6+HO2  =  C2H5+H2O2  1.320E+13  0.00  2.047E+04
    REV /  8.298E+10  0.24  7.852E+03 /
  CH2+O2  =  CO2+H2  1.010E+21  -3.30  1.508E+03
    REV /  3.054E+23  -3.30  1.867E+05 /
  CH3+C2H3  =  CH4+C2H2  3.920E+11  0.00  0.000E+00
    REV /  2.962E+13  0.00  6.605E+04 /
  CH3+C2H5  =  CH4+C2H4  1.950E+13  -0.50  0.000E+00
    REV /  2.895E+16  -0.70  7.017E+04 /
  CH3OH+CH2O  =  CH3O+CH3O  3.835E+13  0.05  8.472E+04
    REV /  6.030E+13  0.00  0.000E+00 /
  CH2O+CH3O  =  CH3OH+HCO  1.020E+11  0.00  2.980E+03
    REV /  3.926E+09  0.02  1.592E+04 /
  CH4+CH3O  =  CH3+CH3OH  1.570E+11  0.00  8.842E+03
    REV /  2.897E+09  0.02  6.632E+03 /
  C2H6+CH3O  =  C2H5+CH3OH  2.410E+11  0.00  7.090E+03
    REV /  2.842E+07  0.59  9.050E+03 /
  C2H3+H  =  C2H2+H2  2.000E+13  0.00  2.500E+03
    REV /  1.331E+13  0.00  6.808E+04 /
  CH3O+CH3OH  =  CH2OH+CH3OH  3.000E+11  0.00  4.074E+03
    REV /  1.549E+05  1.68  1.050E+04 /
  CH3OH+OH  =  CH3O+H2O  1.000E+06  2.10  4.967E+02
    REV /  8.981E+06  2.08  1.738E+04 /
  C2H5+H  =  CH3+CH3  3.610E+13  0.00  0.000E+00
    REV /  5.446E+16  -1.03  1.698E+04 /
  C2H3+O2  =  CH2O+HCO  1.700E+29  -5.31  6.500E+03
    REV /  1.657E+29  -5.31  9.305E+04 /
  C2H6  =  C2H5+H  2.783E+21  -1.56  1.038E+05
    REV /  3.610E+13  0.00  0.000E+00 /
  C2H5OH(+M) = CH2OH+CH3(+M)  5.710E+23  -1.68  9.441E+04
!           REV / 1.307E+17 -0.49 9.163E+03 /
            LOW / 3.110E+85 -18.84 1.1310E+05 /
  TROE/ 0.5  550. 825. 6100./
  H2/2/ H2O/5/ CO/2/ CO2/3/
  C2H5OH(+M) = C2H5+OH(+M)  2.400E+23  -1.62  9.954E+04
!           REV / 3.097E+18 -1.06 5.610E+03 /
            LOW / 5.110E+85 -18.80 1.1877E+05 /
  TROE/ 0.5  650. 800. 1.0E+15/
  H2/2/ H2O/5/ CO/2/ CO2/3/
  C2H5OH(+M) = C2H4+H2O(+M)  2.790E+13   0.09  6.614E+04
!           REV / 8.858E+10 0.45 5.706E+04 /
            LOW / 2.570E+83 -18.85 8.6453E+04 /
  TROE/ 0.7  350. 800. 3800./
  H2O/5/
  C2H5OH(+M) = CH3CHO+H2(+M) 7.240E+11   0.10  9.101E+04
!           REV / 2.342E+08 0.77 7.357E+04 /
            LOW / 4.460E+87 -19.42 1.1559E+05 /
  TROE/ 0.9  900. 1100. 3500./
  H2O/5/
  C2H5OH+O2  =  PC2H4OH+HO2  2.000E+13  0.00  5.280E+04
    REV /  3.470E+08  0.32 -1.105E+03 /
  C2H5OH+O2  =  SC2H4OH+HO2  1.500E+13  0.00  5.015E+04
    REV /  1.870E+11  0.09  3.856E+03 /
  C2H5OH+OH  =  PC2H4OH+H2O  1.740E+11  0.27  6.000E+02
    REV /  7.196E+08  0.26  1.933E+04 /
  C2H5OH+OH  =  SC2H4OH+H2O  4.640E+11  0.15  0.000E+00
    REV /  1.378E+12  -0.08  2.635E+04 /
  C2H5OH+H  =  PC2H4OH+H2  1.230E+07  1.80  5.098E+03
    REV /  1.175E+04  1.79  8.677E+03 /
  C2H5OH+H  =  SC2H4OH+H2  2.580E+07  1.65  2.827E+03
    REV /  1.770E+07  1.42  1.402E+04 /
  C2H5OH+HO2  =  PC2H4OH+H2O2  1.230E+04  2.55  1.575E+04
    REV /  3.019E+02  2.21  3.021E+03 /
  C2H5OH+HO2  =  SC2H4OH+H2O2  8.200E+03  2.55  1.075E+04
    REV /  1.446E+05  1.99  5.632E+03 /
  C2H5OH+HO2  =  C2H5O+H2O2  2.500E+12  0.00  2.400E+04
    REV /  1.514E+14  -1.80  3.800E+04 /
  C2H5OH+O  =  PC2H4OH+OH  9.410E+07  1.70  5.459E+03
    REV /  3.947E+04  1.69  6.943E+03 /
  C2H5OH+O  =  SC2H4OH+OH  1.880E+07  1.85  1.824E+03
    REV /  5.665E+06  1.62  1.092E+04 /
  C2H5OH+CH3  =  PC2H4OH+CH4  1.330E+02  3.18  9.362E+03
    REV /  3.319E+00  3.17  1.342E+04 /
  C2H5OH+CH3  =  SC2H4OH+CH4  4.440E+02  2.90  7.690E+03
    REV /  7.958E+03  2.67  1.936E+04 /
  C2H5OH+C2H5  =  PC2H4OH+C2H6  5.000E+10  0.00  1.340E+04
    REV /  1.952E+11  -0.58  1.329E+04 /
  C2H5OH+C2H5  =  SC2H4OH+C2H6  5.000E+10  0.00  1.040E+04
    REV /  1.403E+14  -0.80  1.790E+04 /
  PC2H4OH  =  C2H4+OH  1.293E+12  -0.37  2.685E+04
    REV /  9.930E+11  0.00 -9.600E+02 /
  SC2H4OH+M  =  CH3CHO+H+M  1.000E+14  0.00  2.500E+04
    REV /  4.714E+10  0.91 -3.630E+03 /
  C2H4+CH3  =  C2H3+CH4  6.620E+00  3.70  9.500E+03
    REV /  1.440E+00  4.02  5.472E+03 /
 CH3CO(+M) = CH3+CO(+M) 3.000E+12 0.00 1.672E+04
!          REV / 9.623E+11 -0.13 9.778E+03 /
           LOW / 1.200E+15  0.00 1.2518E+04 /
  CH3CHO  =  CH3+HCO  2.614E+15  0.15  8.055E+04
    REV /  2.000E+13  0.00  0.000E+00 /
  CH3CHO+O2  =  CH3CO+HO2  3.010E+13  0.00  3.915E+04
    REV /  8.552E+10  0.32 -1.940E+03 /
  CH3CHO+OH  =  CH3CO+H2O  2.000E+06  1.80  1.300E+03
    REV /  1.354E+06  1.79  3.285E+04 /
  CH3CHO+H  =  CH3CO+H2  1.340E+13  0.00  3.300E+03
    REV /  2.096E+12  -0.01  1.969E+04 /
  CH3CHO+O  =  CH3CO+OH  5.940E+12  0.00  1.868E+03
    REV /  4.080E+11  -0.01  1.617E+04 /
  CH3CHO+HO2  =  CH3CO+H2O2  3.010E+12  0.00  1.192E+04
    REV /  1.210E+13  -0.34  1.201E+04 /
  CH3CHO+CH3  =  CH3CO+CH4  2.608E+06  1.78  5.911E+03
    REV /  1.066E+07  1.77  2.278E+04 /
  C3H5-S  =  C2H2+CH3  9.598E+39  -8.17  4.203E+04
    REV /  1.610E+40  -8.58  2.033E+04 /
  C2H2+CH3  =  C3H4-P+H  1.211E+17  -1.20  1.668E+04
    REV /  1.000E+14  0.00  4.000E+03 /
  C3H5-A  =  C2H2+CH3  2.397E+48  -9.90  8.208E+04
    REV /  2.610E+46  -9.82  3.695E+04 /
  C3H6  =  C2H3+CH3  2.730E+62 -13.28  1.232E+05
    REV /  4.712E+59 -13.19  2.954E+04 /
  C2H2+CH3  =  C3H4-A+H  6.740E+19  -2.08  3.159E+04
    REV /  1.149E+16  -0.70  1.579E+04 /
  IC4H8+C3H5-T  =  IC4H7+C3H6  7.940E+11  0.00  2.050E+04
    REV /  5.592E+20  -1.27  8.017E+04 /
  IC4H8+C3H5-S  =  IC4H7+C3H6  7.940E+11  0.00  2.050E+04
    REV /  5.592E+20  -1.27  8.217E+04 /
  C3H6  =  C3H5-A+H  2.010E+61 -13.26  1.185E+05
    REV /  4.887E+56 -12.25  2.808E+04 /
  C3H6+O  =  CH2CO+CH3+H  2.500E+07  1.76  7.600E+01
    REV /  1.000E+00  0.00  0.000E+00 /
  C3H6+O  =  C2H5+HCO  1.580E+07  1.76 -1.216E+03
    REV /  1.402E+05  1.88  2.651E+04 /
  C3H6+O  =  CH3CHCO+H+H  2.500E+07  1.76  7.600E+01
    REV /  0.000E+00  0.00  0.000E+00 /
  C3H6  =  C3H5-S+H  7.710E+69 -16.09  1.400E+05
    REV /  1.217E+63 -14.60  2.616E+04 /
  C3H6+HO2  =  C3H5-A+H2O2  1.500E+11  0.00  1.419E+04
    REV /  5.867E+05  1.33  9.759E+03 /
  C3H6+HO2  =  C3H5-S+H2O2  7.500E+09  0.00  1.257E+04
    REV /  2.308E+04  1.27 -1.342E+04 /
  C3H6+HO2  =  C3H5-T+H2O2  3.000E+09  0.00  9.930E+03
    REV /  9.234E+03  1.27 -1.406E+04 /
  C3H6+OH  =  C3H5-A+H2O  3.120E+06  2.00 -2.980E+02
    REV /  6.194E+06  2.01  3.188E+04 /
  C3H6+OH  =  C3H5-S+H2O  2.110E+06  2.00  2.778E+03
    REV /  2.719E+04  2.49  1.153E+04 /
  C4H6  =  C2H3+C2H3  4.027E+19  -1.00  9.815E+04
    REV /  1.260E+13  0.00  0.000E+00 /
  C4H6+OH  =  C2H5+CH2CO  1.000E+12  0.00  0.000E+00
    REV /  3.730E+12  0.00  3.002E+04 /
  C4H6+OH  =  CH2O+C3H5-A  1.000E+12  0.00  0.000E+00
    REV /  3.501E+06  0.00  7.106E+04 /
  C4H6+OH  =  C2H3+CH3CHO  1.000E+12  0.00  0.000E+00
    REV /  5.437E+11  0.00  1.855E+04 /
  C4H6+O  =  C2H4+CH2CO  1.000E+12  0.00  0.000E+00
    REV /  6.377E+11  0.00  9.434E+04 /
  C4H6+O  =  CH2O+C3H4-A  1.000E+12  0.00  0.000E+00
    REV /  1.075E+12  0.00  7.905E+04 /
  C2H4+O2  =  C2H3+HO2  4.000E+13  0.00  5.820E+04
    REV /  4.939E+13  -0.50  1.368E+03 /
  CH2O+M  =  CO+H2+M  1.826E+32  -4.42  8.712E+04
    REV /  5.070E+27  -3.42  8.435E+04 /
  NC3H7  =  CH3+C2H4  2.284E+14  -0.55  2.840E+04
    REV /  4.100E+11  0.00  7.204E+03 /
  NC3H7  =  H+C3H6  2.667E+15  -0.64  3.682E+04
    REV /  1.000E+13  0.00  2.500E+03 /
  NC3H7+O2  =  C3H6+HO2  3.000E+11  0.00  3.000E+03
    REV /  2.000E+11  0.00  1.750E+04 /
  C2H4+CH3O  =  C2H3+CH3OH  1.200E+11  0.00  6.750E+03
    REV /  1.000E+10  0.00  9.000E+03 /
  C3H6+OH  =  C3H5-T+H2O  1.110E+06  2.00  1.451E+03
    REV /  3.276E+03  2.69  1.231E+04 /
  C3H6+O  =  C3H5-A+OH  5.240E+11  0.70  5.884E+03
    REV /  1.055E+11  0.71  2.082E+04 /
  C3H6+O  =  C3H5-S+OH  1.200E+11  0.70  8.959E+03
    REV /  1.569E+08  1.19  4.600E+02 /
  C3H6+O  =  C3H5-T+OH  6.030E+10  0.70  7.632E+03
    REV /  1.805E+07  1.39  1.243E+03 /
  C3H6+H  =  C3H5-A+H2  1.730E+05  2.50  2.492E+03
    REV /  7.933E+04  2.51  1.952E+04 /
  C3H6+O2  =  C3H5-S+HO2  2.000E+12  0.00  6.290E+04
    REV /  1.081E+08  0.82 -9.840E+02 /
  C3H6+H  =  C2H4+CH3  4.830E+33  -5.81  1.850E+04
    REV /  2.313E+33  -5.90  3.162E+04 /
  IC3H7  =  H+C3H6  8.569E+18  -1.57  4.034E+04
    REV /  1.300E+13  0.00  1.560E+03 /
  IC3H7+H  =  C2H5+CH3  2.000E+13  0.00  0.000E+00
    REV /  4.822E+09  0.69  1.209E+04 /
  IC3H7+O2  =  C3H6+HO2  4.500E+11  0.00  5.020E+03
    REV /  2.000E+11  0.00  1.750E+04 /
  C3H8+M  =  CH3+C2H5+M  7.900E+22  -1.80  8.863E+04
    REV /  3.659E+14  -0.36  9.890E+02 /
  C3H8+O2  =  IC3H7+HO2  2.000E+13  0.00  4.964E+04
    REV /  1.316E+11  0.08 -1.320E+02 /
  C3H8+O2  =  NC3H7+HO2  6.000E+13  0.00  5.229E+04
    REV /  1.598E+08  1.01 -1.942E+03 /
  H+C3H8  =  H2+IC3H7  1.300E+06  2.40  4.471E+03
    REV /  4.709E+05  2.15  1.218E+04 /
  H+C3H8  =  H2+NC3H7  1.880E+05  2.75  6.280E+03
    REV /  2.756E+01  3.44  9.530E+03 /
  C3H8+O  =  IC3H7+OH  4.770E+04  2.71  2.106E+03
    REV /  7.589E+03  2.46  7.721E+03 /
  C3H8+O  =  NC3H7+OH  1.930E+05  2.68  3.716E+03
    REV /  1.243E+01  3.37  4.871E+03 /
  C3H8+OH  =  NC3H7+H2O  1.054E+10  0.97  1.586E+03
    REV /  6.931E+09  0.97  2.325E+04 /
  C3H8+OH  =  IC3H7+H2O  4.670E+07  1.61 -3.500E+01
    REV /  3.071E+07  1.61  2.163E+04 /
  C3H8+HO2  =  IC3H7+H2O2  5.600E+12  0.00  1.770E+04
    REV /  4.160E+11  0.00  7.426E+03 /
  C3H8+HO2  =  NC3H7+H2O2  1.680E+13  0.00  2.043E+04
    REV /  2.330E+12  0.00  9.826E+03 /
  CH3+C3H8  =  CH4+IC3H7  3.980E+11  0.00  9.500E+03
    REV /  1.585E+12  0.00  1.648E+04 /
  CH3+C3H8  =  CH4+NC3H7  1.290E+12  0.00  1.160E+04
    REV /  5.129E+12  0.00  1.858E+04 /
  IC3H7+C3H8  =  NC3H7+C3H8  3.000E+10  0.00  1.290E+04
    REV /  3.000E+10  0.00  1.290E+04 /
  C2H3+C3H8  =  C2H4+IC3H7  1.000E+11  0.00  1.040E+04
    REV /  1.310E+11  0.00  1.780E+04 /
  C2H3+C3H8  =  C2H4+NC3H7  1.000E+11  0.00  1.040E+04
    REV /  1.310E+11  0.00  1.780E+04 /
  C2H5+C3H8  =  C2H6+IC3H7  1.000E+11  0.00  1.040E+04
    REV /  3.630E+10  0.00  9.934E+03 /
  C2H5+C3H8  =  C2H6+NC3H7  1.000E+11  0.00  1.040E+04
    REV /  3.630E+10  0.00  9.934E+03 /
  C3H8+C3H5-A  =  IC3H7+C3H6  2.000E+11  0.00  1.610E+04
    REV /  3.980E+10  0.00  9.700E+03 /
  C3H8+C3H5-A  =  NC3H7+C3H6  7.940E+11  0.00  2.050E+04
    REV /  1.000E+11  0.00  9.800E+03 /
  C3H8+CH3O  =  NC3H7+CH3OH  3.000E+11  0.00  7.000E+03
    REV /  1.220E+10  0.00  9.182E+03 /
  C3H8+CH3O  =  IC3H7+CH3OH  3.000E+11  0.00  7.000E+03
    REV /  1.220E+10  0.00  9.182E+03 /
  IC4H7  =  C3H4-A+CH3  1.230E+47  -9.74  7.426E+04
    REV /  3.017E+41  -8.70  2.662E+04 /
  IC4H8  =  C3H5-T+CH3  1.920E+66 -14.22  1.281E+05
    REV /  2.089E+59 -13.23  2.953E+04 /
  IC4H8  =  IC4H7+H  3.070E+55 -11.49  1.143E+05
    REV /  3.300E+52 -11.10  2.446E+04 /
  BC5H10  =  CH3+C4H7  1.000E+16  0.00  7.100E+04
    REV /  1.000E+13  0.00  0.000E+00 /
  CC5H10  =  CH3+C4H7  1.000E+16  0.00  7.100E+04
    REV /  1.000E+13  0.00  0.000E+00 /
  IC4H8+O  =  CH2CO+CH3+CH3  3.330E+07  1.76  7.600E+01
    REV /  0.000E+00  0.00  0.000E+00 /
  IC4H8+H  =  IC4H7+H2  3.400E+05  2.50  2.492E+03
    REV /  6.891E+06  1.89  2.010E+04 /
  IC4H8+O  =  IC4H7+OH  1.206E+11  0.70  7.633E+03
    REV /  1.074E+12  0.09  2.315E+04 /
  IC4H8+OH  =  IC4H7+H2O  5.200E+06  2.00 -2.980E+02
    REV /  4.563E+08  1.39  3.247E+04 /
  IC4H8+O  =  IC3H7+HCO  1.580E+07  1.76 -1.216E+03
    REV /  1.750E+09  0.49  2.758E+04 /
  IC4H8+CH3O2  =  IC4H7+CH3O2H  1.928E+04  2.60  1.391E+04
    REV /  2.091E+07  1.49  1.219E+04 /
  IC4H8+CH3  =  IC4H7+CH4  4.420E+00  3.50  5.675E+03
    REV /  2.340E+03  2.89  2.377E+04 /
  IC4H8+HO2  =  IC4H7+H2O2  1.928E+04  2.60  1.391E+04
    REV /  1.004E+07  1.66  1.521E+04 /
  C5H9  =  C3H5-A+C2H4  2.500E+13  0.00  4.500E+04
    REV /  0.000E+00  0.00  0.000E+00 /
  C5H9  =  C4H6+CH3  1.339E+15  -0.52  3.832E+04
    REV /  1.750E+11  0.00  7.600E+03 /
  C4H7  =  C4H6+H  1.200E+14  0.00  4.930E+04
    REV /  4.000E+13  0.00  1.300E+03 /
  C4H7  =  C2H4+C2H3  1.000E+11  0.00  3.700E+04
    REV /  5.000E+10  0.00  7.000E+03 /
  C4H7+C3H6  =  C4H8-2+C3H5-A  1.000E+11  0.00  1.590E+04
    REV /  1.000E+11  0.00  1.500E+04 /
  C4H8-1+C4H6  =  C4H7+C4H7  2.350E+12  0.00  4.672E+04
    REV /  1.600E+12  0.00  0.000E+00 /
  C4H8-2+C4H6  =  C4H7+C4H7  2.350E+12  0.00  4.672E+04
    REV /  1.600E+12  0.00  0.000E+00 /
  C4H7+CH3  =  C4H6+CH4  8.000E+12  0.00  0.000E+00
    REV /  7.050E+13  0.00  5.728E+04 /