! The developement of this Mechanism is published in:
! Liu, Shiling, et al. "Effects of strain rate on high-pressure nonpremixed n-heptane
! autoignition in counterflow." Combustion and flame 137.3 (2004): 320-339.
! 46 Species mechanism for n-Heptane oxidation
ELEMENTS          
H    O    C    N    
END
SPECIES
 C7H16       OH           O            CO2          CO    
 H2           H2O          HO2          H2O2         H
 O2           CH           HCO          CH2OH        TXCH2
 C2H2         CH3          C2H4         PXCH2        CH2O
 CH4          CH3O         C2H6         HCCO         C2H3
 C2H5         C3H4         C3H5         C3H6         NXC3H7
 PXC4H8       PXC4H9       PXC5H11      C6H11        PXC6H12
 PXC7H15      SXC7H15      PC7H15O2     PHEOOHX2     SOO7OOH1
 PX2HEOOH     OC7OOH       PX2HEPOO     N	     NO
 N2   
END
REACTIONS
 O2 + H                = OH + O           2.000e+14    0.000  16802.10
 H2 +O<=>OH+H                             5.060e+04    2.670   6285.85
 H2+OH<=>H2O+H                            1.000e+08    1.600   3298.28
 2OH<=>H2O+O                              1.500e+09    1.140    100.38
 2H+M<=>H2+M                              1.800e+18   -1.000      0.00
 N2/0.40/ O2/0.40/ H2O/6.50/ CO/0.75/ CH4/3.00/C7H16/3.00/
 2O+M<=>O2+M                              2.900e+17   -1.000      0.00
 N2/0.40/ O2/0.40/ H2O/6.50/ CO/0.75/ CH4/3.00/C7H16/3.00/ 
 H+OH+M<=>H2O+M                           2.200e+22   -2.000      0.00
 N2/0.40/ O2/0.40/ H2O/6.50/ CO/0.75/ CH4/3.00/C7H16/3.00/ 
 H+O2+M<=>HO2+M                           2.300e+18   -0.800      0.00
 N2/0.40/ O2/0.40/ H2O/6.50/ CO/0.75/ CH4/3.00/C7H16/3.00/ 
 HO2+H<=>2OH                              1.500e+14    0.000   1003.82
 HO2+H<=>H2+O2                            2.500e+13    0.000    693.12
 HO2+H<=>H2O+O                            3.000e+13    0.000   1720.84
 HO2+O<=>OH+O2                            1.800e+13    0.000   -406.31
 HO2+OH<=>H2O+O2                          6.000e+13    0.000      0.00
 2HO2<=>H2O2+O2                           2.500e+11    0.000  -1242.83
 2OH+M<=>H2O2+M                           3.250e+22   -2.000      0.00
 N2/0.40/ O2/0.40/ H2O/6.50/ CO/0.75/ CH4/3.00/C7H16/3.00/ 
 H2O2+OH<=>H2O+HO2                        5.400e+12    0.000   1003.82
 CO+OH<=>CO2+H                            6.000e+06    1.500   -740.92
 CO+HO2<=>CO2+OH                          1.500e+14    0.000  23589.87
 CO+O+M<=>CO2+M                           7.100e+13    0.000  -4541.11
 N2/0.40/ O2/0.40/ H2O/6.50/ CO/0.75/ CH4/3.00/C7H16/3.00/ 
 CH+O2=>HCO+O                             6.000e+13    0.000      0.00
 CH+CO2=>HCO+CO                           3.400e+12    0.000    693.12
 CH+H2O<=>CH2OH                           5.700e+12    0.000   -764.82
 HCO+M<=>CO+H+M                           1.566e+14    0.000  15757.65
 N2/0.40/ O2/0.40/ H2O/6.50/ CO/0.75/ CH4/3.00/C7H16/3.00/ 
 HCO+O2<=>CO+HO2                          3.000e+12    0.000      0.00
 TXCH2+H<=>CH+H2                          6.000e+12    0.000  -1792.54
 2TXCH2<=>C2H2+H2                         1.200e+13    0.000    812.62
 TXCH2+CH3<=>C2H4+H                       4.200e+13    0.000      0.00
 TXCH2+O2<=>CO+OH+H                       1.300e+13    0.000   1481.84
 TXCH2+O2<=>CO2+H2                        1.200e+13    0.000   1481.84
 PXCH2+M<=>TXCH2+M                        1.200e+13    0.000      0.00
 N2/0.40/ O2/0.40/ H2O/6.50/ CO/0.75/ CH4/3.00/C7H16/3.00/ 
 PXCH2+O2<=>CO+OH+H                       3.100e+13    0.000      0.00
 PXCH2+H2<=>CH3+H                         7.200e+13    0.000      0.00
 CH2O+M<=>HCO+H+M                         5.000e+16    0.000  76481.84
 N2/0.40/ O2/0.40/ H2O/6.50/ CO/0.75/ CH4/3.00/C7H16/3.00/ 
 CH2O+H<=>HCO+H2                          2.300e+10    1.050   3274.38
 CH2O+O<=>HCO+OH                          4.150e+11    0.570   2772.47
 CH2O+OH<=>HCO+H2O                        3.400e+09    1.200   -454.11
 CH2O+HO2<=>HCO+H2O2                      3.000e+12    0.000  13073.61
 CH3+O<=>CH2O+H                           8.430e+13    0.000      0.00
 CH3+H(+M)<=>CH4(+M)                      2.108e+14    0.000      0.00
     LOW  /  6.257e+23   -1.800      0.00 /
     TROE/   0.577     1.00   2370.00 /
 CH3+OH=>CH3O+H                           2.260e+14    0.000  15487.57
 CH3+O2=>CH2O+OH                          3.300e+11    0.000   8938.81
 CH3+HO2<=>CH3O+OH                        1.800e+13    0.000      0.00
 CH3+HO2<=>CH4+O2                         3.600e+12    0.000      0.00
 2CH3=>C2H4+H2                            1.000e+16    0.000  32026.77
 2CH3(+M)<=>C2H6(+M)                      1.813e+13    0.000      0.00
     LOW  /  1.272e+41   -7.000   2762.91 /
     TROE/    0.62    73.00   1180.00        /
 CH3O+M<=>CH2O+H+M                        5.000e+13    0.000  25095.60
 N2/0.40/ O2/0.40/ H2O/6.50/ CO/0.75/ CH4/3.00/C7H16/3.00/ 
 CH3O+H<=>CH2O+H2                         1.800e+13    0.000      0.00
 CH3O+O2<=>CH2O+HO2                       4.000e+10    0.000   2127.15
 CH2OH+M<=>CH2O+H+M                       5.000e+13    0.000  25095.60
 N2/0.40/ O2/0.40/ H2O/6.50/ CO/0.75/ CH4/3.00/C7H16/3.00/ 
 CH2OH+H<=>CH2O+H2                        3.000e+13    0.000      0.00
 CH2OH+O2<=>CH2O+HO2                      1.000e+13    0.000   7170.17
 CH4+H<=>H2+CH3                           1.300e+04    3.000   8030.59
 CH4+OH<=>H2O+CH3                         1.600e+07    1.830   2772.47
 HCCO+H<=>TXCH2+CO                        1.500e+14    0.000      0.00
 HCCO+O=>2CO+H                            9.600e+13    0.000      0.00
 C2H2+O2<=>HCCO+OH                        2.000e+08    1.500  30114.72
 C2H2+O<=>TXCH2+CO                        1.720e+04    2.800    501.91
 C2H2+O<=>HCCO+H                          1.720e+04    2.800    501.91
 C2H3(+M)<=>C2H2+H(+M)                    2.000e+14    0.000  39744.26
     LOW  /  1.187e+42   -7.500  45506.69 /
     TROE/    0.35     1.00 10000000.00 10000000.00 /
 C2H3+O2=>CH2O+HCO                        5.420e+12    0.000      0.00
 C2H4+M<=>C2H2+H2+M                       2.500e+17    0.000  76434.03
 N2/0.40/ O2/0.40/ H2O/6.50/ CO/0.75/ CH4/3.00/C7H16/3.00/ 
 C2H4+H<=>C2H3+H2                         1.700e+15    0.000  15033.46
 C2H4+OH<=>C2H3+H2O                       6.500e+13    0.000   5951.24
 C2H5(+M)<=>C2H4+H(+M)                    1.300e+13    0.000  39913.96
     LOW  /  1.000e+16    0.000  30114.72 /
     TROE/       1     1.00    422.80        73 /
 C2H5+H<=>2CH3                            3.000e+13    0.000      0.00
 C2H5+O2<=>C2H4+HO2                       1.100e+10    0.000  -1505.74
 C2H6+H=>C2H5+H2                          1.400e+09    1.500   7433.08
 C2H6+OH=>C2H5+H2O                        7.200e+06    2.000    860.42
 C2H6+CH3=>C2H5+CH4                       1.500e-07    6.000   6070.75
 C3H4+OH=>CH2O+C2H3                       1.000e+12    0.000      0.00
 C3H4+OH=>HCO+C2H4                        1.000e+12    0.000      0.00
 C3H5<=>C3H4+H                            3.980e+13    0.000  70052.58
 C3H5+H<=>C3H4+H2                         5.000e+12    0.000      0.00
 C3H5+O2<=>C3H4+HO2                       6.000e+11    0.000  10014.34
 C3H6<=>C2H3+CH3                          3.150e+15    0.000  85803.06
 C3H6+H<=>C3H5+H2                         5.000e+12    0.000   1505.74
 C3H6+OH<=>C2H5+CH2O                      7.900e+12    0.000      0.00
 C3H6+OH<=>C3H5+H2O                       4.000e+12    0.000      0.00
 C3H6+CH3=>C3H5+CH4                       8.960e+12    0.000   8508.60
 NXC3H7<=>CH3+C2H4                        9.600e+13    0.000  31022.94
 NXC3H7<=>H+C3H6                          1.250e+14    0.000  37021.99
 NXC3H7+O2<=>C3H6+HO2                     1.000e+12    0.000   4995.22
 PXC4H8<=>C3H5+CH3                        8.000e+16    0.000  73470.36
 PXC4H8+OH<=>NXC3H7+CH2O                  6.500e+12    0.000      0.00
 PXC4H9=>C2H5+C2H4                        2.500e+13    0.000  28824.09
 PXC5H11=>C2H4+NXC3H7                     3.200e+13    0.000  28417.78
 C6H11=>C3H5+C3H6                         2.500e+13    0.000  30019.12
 PXC6H12=>NXC3H7+C3H5                     2.500e+16    0.000  71152.01
 PXC6H12+H=>C6H11+H2                      5.000e+12    0.000      0.00
 PXC6H12+OH=>C6H11+H2O                    5.000e+12    0.000      0.00
 PXC7H15=>PXC5H11+C2H4                    2.500e+13    0.000  28824.09
 SXC7H15=>PXC4H9+C3H6                     1.600e+13    0.000  28322.18
 SXC7H15=>PXC6H12+CH3                     4.000e+13    0.000  33030.59
 PXC7H15=>SXC7H15                         2.000e+11    0.000  18116.63
 SXC7H15=>PXC7H15                         3.000e+11    0.000  21128.11
C7H16=>PXC4H9+NXC3H7                   3.160e+16    0.000  81070.75
C7H16+H=>PXC7H15+H2                    7.300e+07    2.000   7695.98
C7H16+H=>SXC7H15+H2                    3.500e+07    2.000   4995.22
C7H16+OH=>PXC7H15+H2O                  1.056e+10    1.100   1816.44
C7H16+OH=>SXC7H15+H2O                  5.200e+09    1.300    693.12
C7H16+HO2=>PXC7H15+H2O2                1.790e+13    0.000  19407.27
C7H16+HO2=>SXC7H15+H2O2                1.340e+13    0.000  17017.21
C7H16+O2=>PXC7H15+HO2                  5.500e+13    0.000  49043.98
C7H16+O2=>SXC7H15+HO2                  8.000e+13    0.000  47633.84
 PXC7H15+O2<=>PC7H15O2                    2.000e+12    0.000      0.00
     REV / 1.750e+15    0.000  28035.37 /
 SXC7H15+O2<=>PC7H15O2                    2.000e+12    0.000      0.00
     REV / 1.750e+15    0.000  28035.37 /
 PC7H15O2=>PHEOOHX2                       6.000e+11    0.000  20458.89
 PHEOOHX2+O2=>SOO7OOH1                    5.000e+11    0.000      0.00
 SOO7OOH1=>PX2HEOOH                       2.000e+11    0.000  17017.21
 PX2HEOOH=>OC7OOH+OH                      1.000e+09    0.000   7504.78
 OC7OOH=>PX2HEPOO+OH                      8.400e+14    0.000  43044.93
 PX2HEPOO=>CH2O+PXC5H11+CO                2.000e+13    0.000  15009.56
N+NO<=>N2+O                              2.700E+13     .000     355.00
N+O2<=>NO+O                              9.000E+09    1.000    6500.00
N+OH<=>NO+H                              3.360E+13     .000     385.00
END
