THERMO ALL
   300      1000.000  5000.000
N2                      N   2O   0H   0C   0G       300      5000    1000      1
 2.85328990E+00 1.60221280E-03-6.29368930E-07 1.14410220E-10-7.80574650E-15    2
-8.90080930E+02 6.39648970E+00 3.70441770E+00-1.42187530E-03 2.86703920E-06    3
-1.20288850E-09-1.39546770E-14-1.06407950E+03 2.23362850E+00                   4
O2                      N   0O   2H   0C   0G       300      5000    1000      1
 3.61221390E+00 7.48531660E-04-1.98206470E-07 3.37490080E-11-2.39073740E-15    2
-1.19781510E+03 3.67033070E+00 3.78371350E+00-3.02336340E-03 9.94927510E-06    3
-9.81891010E-09 3.30318250E-12-1.06381070E+03 3.64163450E+00                   4
H                 000000N   0O   0H   1C   0G       300      5000    1000      1
 2.50000000E+00 0.00000000E+00 0.00000000E+00 0.00000000E+00 0.00000000E+00    2
 2.54716270E+04-4.60117630E-01 2.50000000E+00 0.00000000E+00 0.00000000E+00    3
 0.00000000E+00 0.00000000E+00 2.54716270E+04-4.60117620E-01                   4
OH                000000N   0O   1H   1C   0G       300      5000    1000      1
 2.88978140E+00 1.00058790E-03-2.20488070E-07 2.01912880E-11-3.94098310E-16    2
 3.88570420E+03 5.55664270E+00 3.87373000E+00-1.33937720E-03 1.63483510E-06    3
-5.21336390E-10 4.18269740E-14 3.58023480E+03 3.42024060E-01                   4
O                 000000N   0O   1H   0C   0G       300      5000    1000      1
 2.53429610E+00-1.24781700E-05-1.25627240E-08 6.90298620E-12-6.37970950E-16    2
 2.92311080E+04 4.96285910E+00 3.03094010E+00-2.25258530E-03 3.98245400E-06    3
-3.26049210E-09 1.01520350E-12 2.91365260E+04 2.60993420E+00                   4
H2                000000N   0O   0H   2C   0G       300      5000    1000      1
 3.06670950E+00 5.74737550E-04 1.39383190E-08-2.54835180E-11 2.90985740E-15    2
-8.65474120E+02-1.77984240E+00 3.35535140E+00 5.01361440E-04-2.30069080E-07    3
-4.79053240E-10 4.85225850E-13-1.01916260E+03-3.54772280E+00                   4
H2O               000000N   0O   1H   2C   0G       300      5000    1000      1
 2.61104720E+00 3.15631300E-03-9.29854380E-07 1.33315380E-10-7.46893510E-15    2
-2.98681670E+04 7.20912680E+00 4.16772340E+00-1.81149700E-03 5.94712880E-06    3
-4.86920210E-09 1.52919910E-12-3.02899690E+04-7.31354740E-01                   4
HO2               000000N   0O   2H   1C   0G       300      5000    1000      1
 3.78662800E+00 2.78854040E-03-1.01687080E-06 1.71839460E-10-1.10218520E-14    2
 1.18885000E+03 4.81476110E+00 3.50948500E+00 1.14996700E-03 5.87842590E-06    3
-7.77955190E-09 2.96078830E-12 1.38033310E+03 6.82763250E+00                   4
H2O2              000000N   0O   2H   2C   0G       300      5000    1000      1
 4.57316670E+00 4.33613630E-03-1.47468880E-06 2.34890370E-10-1.43165360E-14    2
-1.80069610E+04 5.01136960E-01 3.38875360E+00 6.56922600E-03-1.48501260E-07    3
-4.62580550E-09 2.47151470E-12-1.76631470E+04 6.78536310E+00                   4
CO                000000N   0O   1H   0C   1G       300      5000    1000      1
 3.02507810E+00 1.44268850E-03-5.63082780E-07 1.01858130E-10-6.91095160E-15    2
-1.42683500E+04 6.10821770E+00 3.26245170E+00 1.51194090E-03-3.88175520E-06    3
 5.58194420E-09-2.47495120E-12-1.43105390E+04 4.84889700E+00                   4
CO2               000000N   0O   2H   0C   1G       300      5000    1000      1
 4.45362280E+00 3.14016870E-03-1.27841050E-06 2.39399670E-10-1.66903320E-14    2
-4.89669610E+04-9.55395880E-01 2.27572470E+00 9.92207230E-03-1.04091130E-05    3
 6.86668680E-09-2.11728010E-12-4.83731410E+04 1.01884880E+01                   4
CH                000000N   0O   0H   1C   1G       300      5000    1000      1
 2.19622330E+00 2.34038100E-03-7.05820130E-07 9.00758220E-11-3.85504010E-15    2
 7.08672340E+04 9.17837330E+00 3.20020250E+00 2.07287560E-03-5.13443140E-06    3
 5.73389030E-09-1.95553320E-12 7.04525940E+04 3.33158780E+00                   4
HCO               000000N   0O   1H   1C   1G       300      5000    1000      1
 3.47383480E+00 3.43702270E-03-1.36326640E-06 2.49286450E-10-1.70443310E-14    2
 3.95940050E+03 6.04533400E+00 3.88401920E+00-8.29744480E-04 7.79008090E-06    3
-7.06169620E-09 1.99717300E-12 4.05638600E+03 4.83541330E+00                   4
CH2OH             000000N   0O   1H   3C   1G       300      5000    1000      1
 4.72350410E+00 6.10204410E-03-1.91320940E-06 2.76074270E-10-1.45483670E-14    2
-3.93291650E+03-8.52438210E-02 3.33684060E+00 6.58812370E-03 2.99793280E-06    3
-5.87197140E-09 2.12295720E-12-3.31682670E+03 8.06681540E+00                   4
TXCH2             000000N   0O   0H   2C   1G       300      5000    1000      1
 3.63640790E+00 1.93305660E-03-1.68701630E-07-1.00989940E-10 1.80825580E-14    2
 4.53413400E+04 2.15656070E+00 3.76223710E+00 1.15981910E-03 2.48958540E-07    3
 8.80083560E-10-7.33243540E-13 4.53679060E+04 1.71257760E+00                   4
C2H2              000000N   0O   0H   2C   2G       300      5000    1000      1
 4.43677040E+00 5.37603910E-03-1.91281670E-06 3.28637890E-10-2.15670950E-14    2
 2.56676640E+04-2.80033830E+00 2.01356220E+00 1.51904460E-02-1.61631890E-05    3
 9.07899180E-09-1.91274600E-12 2.61244430E+04 8.80537800E+00                   4
CH3               000000N   0O   0H   3C   1G       300      5000    1000      1
 2.84405160E+00 6.13797410E-03-2.23034520E-06 3.78516080E-10-2.45215900E-14    2
 1.64378090E+04 5.45269730E+00 2.43044280E+00 1.11240990E-02-1.68022030E-05    3
 1.62182870E-08-5.86495260E-12 1.64237810E+04 6.78979400E+00                   4
C2H4              000000N   0O   0H   4C   2G       300      5000    1000      1
 3.52841880E+00 1.14851850E-02-4.41838530E-06 7.84460050E-10-5.26684850E-14    2
 4.42828860E+03 2.23038910E+00-8.61487980E-01 2.79616290E-02-3.38867720E-05    3
 2.78515220E-08-9.73787890E-12 5.57304590E+03 2.42114870E+01                   4
PXCH2             000000N   0O   0H   2C   1G       300      5000    1000      1
 3.55288860E+00 2.06678830E-03-1.91411600E-07-1.10467340E-10 2.02134960E-14    2
 4.98497540E+04 1.68657010E+00 3.97126510E+00-1.69908880E-04 1.02536890E-06    3
 2.49255080E-09-1.98126630E-12 4.98936760E+04 5.75320720E-02                   4
CH2O              000000N   0O   1H   2C   1G       300      5000    1000      1
 2.99560620E+00 6.68132120E-03-2.62895470E-06 4.73715290E-10-3.21251750E-14    2
-1.53203690E+04 6.91257240E+00 1.65273120E+00 1.26314390E-02-1.88816850E-05    3
 2.05003140E-08-8.41323710E-12-1.48654040E+04 1.37848200E+01                   4
CH4               000000N   0O   0H   4C   1G       300      5000    1000      1
 1.68347880E+00 1.02372360E-02-3.87512860E-06 6.78558490E-10-4.50342310E-14    2
-1.00807870E+04 9.62339500E+00 7.78741480E-01 1.74766840E-02-2.78340900E-05    3
 3.04970800E-08-1.22393070E-11-9.82522850E+03 1.37221950E+01                   4
CH3O              000000N   0O   1H   3C   1G       300      5000    1000      1
 3.77079960E+00 7.87149740E-03-2.65638390E-06 3.94443140E-10-2.11261640E-14    2
 1.27832520E+02 2.92957500E+00 2.10620400E+00 7.21659510E-03 5.33847200E-06    3
-7.37763630E-09 2.07561050E-12 9.78601070E+02 1.31521770E+01                   4
C2H6              000000N   0O   0H   6C   2G       300      5000    1000      1
 4.82593820E+00 1.38404290E-02-4.55725880E-06 6.72496720E-10-3.59816140E-14    2
-1.27177930E+04-5.23950670E+00 1.46253870E+00 1.54946670E-02 5.78050730E-06    3
-1.25783190E-08 4.58626710E-12-1.12391760E+04 1.44322950E+01                   4
HCCO              000000N   0O   1H   1C   2G       300      5000    1000      1
 6.75807290E+00 2.00040030E-03-2.02760730E-07-1.04113180E-10 1.96516470E-14    2
 1.90151330E+04-9.07126240E+00 5.04796510E+00 4.45347790E-03 2.26828280E-07    3
-1.48209460E-09 2.25074150E-13 1.96589180E+04 4.81843950E-01                   4
C2H3              000000N   0O   0H   3C   2G       300      5000    1000      1
 5.93346790E+00 4.01774560E-03-3.96673950E-07-1.44126660E-10 2.37864350E-14    2
 3.18543460E+04-8.53031250E+00 2.45927640E+00 7.37147640E-03 2.10987290E-06    3
-1.32164210E-09-1.18478380E-12 3.33522500E+04 1.15562020E+01                   4
C2H5              000000N   0O   0H   5C   2G       300      5000    1000      1
 7.19048020E+00 6.48407730E-03-6.42806470E-07-2.34787940E-10 3.88087730E-14    2
 1.06745490E+04-1.47808920E+01 2.69070170E+00 8.71913320E-03 4.41983870E-06    3
 9.33870310E-10-3.92777350E-12 1.28704040E+04 1.21381950E+01                   4
C3H4              000000N   0O   0H   4C   3G       300      5000    1000      1
 6.53446390E+00 1.03377440E-02-3.40010590E-06 4.90913750E-10-2.53637480E-14    2
 1.94417070E+04-1.13959430E+01 2.66811280E+00 1.61777880E-02 9.72366250E-07    3
-1.15326560E-08 5.65209860E-12 2.08009570E+04 9.87409110E+00                   4
C3H5              000000N   0O   0H   5C   3G       300      5000    1000      1
 7.90919780E+00 1.21152550E-02-4.11758630E-06 6.15667960E-10-3.32357330E-14    2
 1.23541560E+04-1.96723330E+01-5.41004000E-01 2.72841010E-02-9.63653290E-07    3
-1.91294620E-08 9.83941750E-12 1.51303950E+04 2.60673370E+01                   4
C3H6              000000N   0O   0H   6C   3G       300      5000    1000      1
 6.73225690E+00 1.49083360E-02-4.94989940E-06 7.21202210E-10-3.76620430E-14    2
-9.23570310E+02-1.33133480E+01 1.49330710E+00 2.09251750E-02 4.48679380E-06    3
-1.66891210E-08 7.15814650E-12 1.07482640E+03 1.61453400E+01                   4
NXC3H7            000000N   0O   0H   7C   3G       300      5000    1000      1
 7.97829060E+00 1.57611330E-02-5.17324310E-06 7.44389220E-10-3.82497820E-14    2
 7.57940230E+03-1.93561100E+01 1.92253690E+00 2.47892740E-02 1.81024920E-06    3
-1.78326580E-08 8.58299630E-12 9.71328130E+03 1.39927150E+01                   4
PXC4H8            000000N   0O   0H   8C   4G       300      5000    1000      1
 2.05358410E+00 3.43505070E-02-1.58831970E-05 3.30896620E-09-2.53610450E-13    2
-2.13972310E+03 1.55432010E+01 1.18113800E+00 3.08533800E-02 5.08652470E-06    3
-2.46548880E-08 1.11101930E-11-1.79040040E+03 2.10624690E+01                   4
PXC4H9            000000N   0O   0H   9C   4G       300      5000    1000      1
 9.00491050E+00 2.40033190E-02-8.95518680E-06 1.53225940E-09-9.82470400E-14    2
 3.46301120E+03-2.05251920E+01 2.18641570E+00 3.30049660E-02 3.03012080E-06    3
-2.40407200E-08 1.13063770E-11 5.89791800E+03 1.72541660E+01                   4
PXC5H11           000000N   0O   0H  11C   5G       300      5000    1000      1
 1.06551910E+01 3.09392660E-02-1.17905970E-05 2.05578310E-09-1.34048480E-13    2
 1.91752170E+01-2.75262150E+01 2.19509120E+00 4.12915090E-02 6.58524190E-06    3
-3.37515080E-08 1.54053990E-11 3.02183180E+03 1.94248350E+01                   4
C6H11             000000N   0O   0H  11C   6G       300      5000    1000      1
 1.59277710E+01 2.37441290E-02-6.90867180E-06 8.10977730E-10-2.68312260E-14    2
-8.64265620E+03-6.52518620E+01-1.39422800E+00 4.72069310E-02 1.19604190E-05    3
-4.16289580E-08 1.74033570E-11-2.21779000E+03 3.12960360E+01                   4
PXC6H12           000000N   0O   0H  12C   6G       300      5000    1000      1
 1.86636350E+01 2.09714510E-02-3.10828090E-06-6.86516180E-10 1.60236080E-13    2
-1.35908950E+04-7.09026950E+01 1.96862030E+00 4.76562310E-02 6.60153730E-06    3
-3.71481730E-08 1.69224630E-11-7.71187890E+03 2.08460690E+01                   4
PXC7H15           000000N   0O   0H  15C   7G       300      5000    1000      1
 1.49188600E+01 4.32057310E-02-1.66293180E-05 2.92776160E-09-1.92614260E-13    2
-7.17518750E+03-4.67647860E+01 2.46798900E+00 5.88880110E-02 9.50681900E-06    3
-4.86846370E-08 2.20524290E-11-2.82337940E+03 2.21353450E+01                   4
SXC7H15           000000N   0O   0H  15C   7G       300      5000    1000      1
 1.49188600E+01 4.32057310E-02-1.66293180E-05 2.92776160E-09-1.92614260E-13    2
-7.17518750E+03-4.67647860E+01 2.46798900E+00 5.88880110E-02 9.50681900E-06    3
-4.86846370E-08 2.20524290E-11-2.82337940E+03 2.21353450E+01                   4
C7H16             000000N   0O   0H  16C   7G       300      5000    1000      1
 2.28188930E+01 3.25434540E-02-1.11200410E-05 1.71317430E-09-9.62121010E-14    2
-3.36787380E+04-9.43350070E+01 3.01495460E+00 5.44572030E-02 2.18126810E-05    3
-5.42341110E-08 2.08087300E-11-2.60033790E+04 1.75085750E+01                   4
PC7H15O2          000000N   0O   2H  15C   7G       300      5000    1000      1
 2.85328990E+00 1.60221280E-03-6.29368930E-07 1.14410220E-10-7.80574650E-15    2
-8.90080930E+02 6.39648970E+00 3.70441770E+00-1.42187530E-03 2.86703920E-06    3
-1.20288850E-09-1.39546770E-14-1.06407950E+03 2.23362850E+00                   4
PHEOOHX2          000000N   0O   2H  15C   7G       300      5000    1000      1
 2.85328990E+00 1.60221280E-03-6.29368930E-07 1.14410220E-10-7.80574650E-15    2
-8.90080930E+02 6.39648970E+00 3.70441770E+00-1.42187530E-03 2.86703920E-06    3
-1.20288850E-09-1.39546770E-14-1.06407950E+03 2.23362850E+00                   4
SOO7OOH1          000000N   0O   4H  15C   7G       300      5000    1000      1
 2.85328990E+00 1.60221280E-03-6.29368930E-07 1.14410220E-10-7.80574650E-15    2
-8.90080930E+02 6.39648970E+00 3.70441770E+00-1.42187530E-03 2.86703920E-06    3
-1.20288850E-09-1.39546770E-14-1.06407950E+03 2.23362850E+00                   4
PX2HEOOH          000000N   0O   4H  15C   7G       300      5000    1000      1
 2.85328990E+00 1.60221280E-03-6.29368930E-07 1.14410220E-10-7.80574650E-15    2
-8.90080930E+02 6.39648970E+00 3.70441770E+00-1.42187530E-03 2.86703920E-06    3
-1.20288850E-09-1.39546770E-14-1.06407950E+03 2.23362850E+00                   4
OC7OOH            000000N   0O   3H  14C   7G       300      5000    1000      1
 2.85328990E+00 1.60221280E-03-6.29368930E-07 1.14410220E-10-7.80574650E-15    2
-8.90080930E+02 6.39648970E+00 3.70441770E+00-1.42187530E-03 2.86703920E-06    3
-1.20288850E-09-1.39546770E-14-1.06407950E+03 2.23362850E+00                   4
PX2HEPOO          000000N   0O   2H  13C   7G       300      5000    1000      1
 2.85328990E+00 1.60221280E-03-6.29368930E-07 1.14410220E-10-7.80574650E-15    2
-8.90080930E+02 6.39648970E+00 3.70441770E+00-1.42187530E-03 2.86703920E-06    3
-1.20288850E-09-1.39546770E-14-1.06407950E+03 2.23362850E+00                   4
N                 L 6/88N   1               G   200.000  6000.000  1000.000    1
 0.24159429E+01 0.17489065E-03-0.11902369E-06 0.30226245E-10-0.20360982E-14    2
 0.56133773E+05 0.46496096E+01 0.25000000E+01 0.00000000E+00 0.00000000E+00    3
 0.00000000E+00 0.00000000E+00 0.56104637E+05 0.41939087E+01                   4
NO                RUS 78N   1O   1          G   200.000  6000.000  1000.000    1
 0.32606056E+01 0.11911043E-02-0.42917048E-06 0.69457669E-10-0.40336099E-14    2
 0.99209746E+04 0.63693027E+01 0.42184763E+01-0.46389760E-02 0.11041022E-04    3
-0.93361354E-08 0.28035770E-11 0.98446230E+04 0.22808464E+01                   4
END
