!<><><><><><><><><><><><><><><><><><><><><><><><><><><><><><><><><><><><><><><>!
!
!                     ----- H2 Kinetic Mechanism -----
!                     -----   Version 6-10-2011  -----
!
! (c) Burke, Chaos, Ju, Dryer, and Klippenstein; Princeton University, 2011.
!
!
!!!!!!!!!!!!!!!!!!!!!!!!!!!!!!!!! IMPORTANT !!!!!!!!!!!!!!!!!!!!!!!!!!!!!!!!!!!!
!!!!!!!!!!!!!!!!!!!!!!!!!!!!!!!!! IMPORTANT !!!!!!!!!!!!!!!!!!!!!!!!!!!!!!!!!!!!
!!!!!!!!!!!!!!!!!!!!!!!!!!!!!!!!! IMPORTANT !!!!!!!!!!!!!!!!!!!!!!!!!!!!!!!!!!!!
!
!  HOW TO USE THIS MECHANISM:
!
! (*) Due to limitations of CHEMKIN-II format (specifically, an inability to
!     implement temperature-dependent collision efficiencies in falloff
!     reactions) and the lack of fundamental understanding of the mixing rules
!     for the falloff reactions with the bath gases that have different
!     broadening factors, the present implementation represents a compromise
!     (approximate) formulation.  As a consequence,
!
!     PRIOR TO ITS USE IN THE CALCULATIONS, THIS FILE HAS TO BE MODIFIED.
!     DEPENDING ON WHAT BATH GAS (DILUTANT) IS MOST ABUNDANT IN YOUR SYSTEM
!     (THE PRESENT CHOICES ARE N2, AR, OR HE),  YOU  SHOULD UNCOMMENT THE
!     CORRESPONDING BLOCK FOR THE REACTION H+O2(+M)=HO2(+M), AND COMMENT THE
!     BLOCK FOR OTHER DILUTANT(S).  AS GIVEN, THE MAIN DILUTANT IS SET TO BE N2.
!
!
!  HOW TO REFERENCE THIS MECHANISM:
!
!     M.P. Burke, M. Chaos, Y. Ju, F.L. Dryer, S.J. Klippenstein
!        "Comprehensive H2/O2 Kinetic Model for High-Pressure Combustion,"
!        Int. J. Chem. Kinet. 44 (2012) 444-474.
!
!
!
!  HOW TO CONTACT THE AUTHORS:
!
!     Prof. Michael P. Burke
!     Email: mpburke@columbia.edu
!
!     Prof. Frederick L. Dryer
!     Email: fldryer@princeton.edu
!
!
!<><><><><><><><><><><><><><><><><><><><><><><><><><><><><><><><><><><><><><><>!
ELEMENTS
H O N AR HE C
END

SPECIES
H        H2       O        OH
H2O      O2       HO2      H2O2     
N2       AR       HE       
CO       CO2
END
REACTIONS

!======================
!H2-O2 Chain Reactions
!======================

! Hong et al., Proc. Comb. Inst. 33:309-316 (2011)
H+O2 = O+OH                                 	1.04E+14   0.00  1.5286E+04

! Baulch et al., J. Phys. Chem. Ref. Data, 21:411 (1992)
O+H2 = H+OH						3.818E+12  0.00  7.948E+03
   DUPLICATE
O+H2 = H+OH						8.792E+14  0.00  1.917E+04
   DUPLICATE

! Michael and Sutherland, J. Phys. Chem. 92:3853 (1988)
H2+OH = H2O+H						0.216E+09  1.51  0.343E+04

! Baulch et al., J. Phys. Chem. Ref. Data, 21:411 (1992)
OH+OH = O+H2O						3.34E+04   2.42  -1.93E+03

!============================
!H2-O2 Dissociation Reactions
!============================

! Tsang and Hampson, J. Phys. Chem. Ref. Data, 15:1087 (1986) 
H2+M = H+H+M						4.577E+19 -1.40  1.0438E+05
   H2/2.5/ H2O/12/
   CO/1.9/ CO2/3.8/
   AR/0.0/ HE/0.0/

! Tsang and Hampson, J. Phys. Chem. Ref. Data, 15:1087 (1986) 
H2+AR = H+H+AR                              	5.840E+18 -1.10  1.0438E+05
H2+HE = H+H+HE                              	5.840E+18 -1.10  1.0438E+05

! Tsang and Hampson, J. Phys. Chem. Ref. Data, 15:1087 (1986) 
O+O+M = O2+M                                	6.165E+15 -0.50  0.000E+00
   H2/2.5/ H2O/12/
   AR/0.0/ HE/0.0/
   CO/1.9/ CO2/3.8/

! Tsang and Hampson, J. Phys. Chem. Ref. Data, 15:1087 (1986) 
O+O+AR = O2+AR                              	1.886E+13  0.00 -1.788E+03
O+O+HE = O2+HE                              	1.886E+13  0.00 -1.788E+03

! Tsang and Hampson, J. Phys. Chem. Ref. Data, 15:1087 (1986) 
O+H+M = OH+M                                	4.714E+18 -1.00  0.000E+00
   H2/2.5/  H2O/12/
   AR/0.75/ HE/0.75/
   CO/1.9/  CO2/3.8/

! Srinivasan and Michael, Int. J. Chem. Kinetic. 38 (2006)
! Rate constant is for Ar with efficiencies from Michael et al., J. Phys. Chem. A, 106 (2002)
H2O+M = H+OH+M                              	6.064E+27 -3.322 1.2079E+05
   H2/3.0/  H2O/0.0/
   HE/1.10/ N2/2.00/
   O2/1.5/
! Efficiencies for CO and CO2 taken from Li et al., Int. J. Chem. Kinet. 36:566-575 (2004)
   CO/1.9/ CO2/3.8/

! Srinivasan and Michael, Int. J. Chem. Kinetic. 38 (2006)
H2O+H2O = H+OH+H2O                          	1.006E+26 -2.44  1.2018E+05

!=================================
! Formation and consumption of HO2
!=================================

! High-pressure limit from Troe, Proc. Comb. Inst. 28:1463-1469 (2000)
! Low-pressure  limit from Michael et al., J. Phys. Chem. A 106:5297-5313
! Centering factors from Fernandes et al., Phys. Chem. Chem. Phys. 10:4313-4321 (2008)
!=================================================================================
! MAIN BATH GAS IS N2 (comment this reaction otherwise)
!
H+O2(+M) = HO2(+M)                          	4.65084E+12  0.44  0.000E+00
   LOW/6.366E+20 -1.72  5.248E+02/
   TROE/0.5  1E-30  1E+30/
   H2/2.0/ H2O/14/ O2/0.78/ CO/1.9/ CO2/3.8/ AR/0.67/ HE/0.8/
!=================================================================================
! MAIN BATH GAS IS AR OR HE (comment this reaction otherwise)
!
!H+O2(+M) = HO2(+M)                         	4.65084E+12  0.44  0.000E+00
!   LOW/9.042E+19 -1.50  4.922E+02/
!   TROE/0.5 1E-30  1E+30/
!   H2/3.0/ H2O/21/ O2/1.1/ CO/2.7/ CO2/5.4/ HE/1.2/ N2/1.5/
!=================================================================================

! Michael et al., Proc. Comb. Inst. 28:1471 (2000)
!HO2+H = H2+O2                                 	3.659E+06  2.09 -1.451E+03
!Scaled by 0.75
HO2+H = H2+O2                                 	2.750E+06  2.09 -1.451E+03

! Mueller et al., Int. J. Chem. Kinetic. 31:113 (1999) 
HO2+H = OH+OH                               	7.079E+13  0.00  2.950E+02

! Fernandez-Ramos and Varandas, J. Phys. Chem. A 106:4077-4083 (2002)
!HO2+O = O2+OH                               	4.750E+10  1.00 -7.2393E+02
!Scaled by 0.60
HO2+O = O2+OH                               	2.850E+10  1.00 -7.2393E+02

! Keyser, J. Phys. Chem. 92:1193 (1988)
HO2+OH = H2O+O2                             	2.890E+13  0.00 -4.970E+02

!=====================================
!Formation and Consumption of H2O2
!=====================================

! Hippler et al., J. Chem. Phys. 93:1755 (1990)
HO2+HO2 = H2O2+O2                           	4.200E+14  0.00  1.1982E+04
   DUPLICATE
HO2+HO2 = H2O2+O2                           	1.300E+11  0.00 -1.6293E+03
   DUPLICATE

! Troe, Combust. Flame,  158:594-601 (2011)
! Rate constant is for Ar
H2O2(+M) = OH+OH(+M)            			2.00E+12   0.90  4.8749E+04
   LOW/2.49E+24 -2.30 4.8749E+04/
   TROE/0.43 1E-30 1E+30/
   H2O/7.5/ CO2/1.6/
   N2/1.5/  O2/1.2/
   HE/0.65/ H2O2/7.7/
! Efficiencies for H2 and CO taken from Li et al., Int. J. Chem. Kinet. 36:566-575 (2004)
   H2/3.7/ CO/2.8/

! Tsang and Hampson, J. Phys. Chem. Ref. Data, 15:1087 (1986)
H2O2+H = H2O+OH                             	2.410E+13  0.00  3.970E+03
H2O2+H = HO2+H2                             	4.820E+13  0.00  7.950E+03
H2O2+O = OH+HO2                             	9.550E+06  2.00  3.970E+03

! Hong et al., J. Phys. Chem. A  114 (2010) 57185727
H2O2+OH = HO2 + H2O                           	1.740E+12  0.00  3.180E+02
   DUPLICATE
H2O2+OH = HO2+H2O                           	7.590E+13  0.00  7.270E+03
   DUPLICATE
END
