ELEMENTS
N  H  O  AR HE C  
END
SPECIES
N2                H                 O2                O                 OH                
H2                H2O               AR                HO2               H2O2              
CO                CO2               HCO               C                 CH                
T-CH2             CH3               CH2O              HCCO              C2H               
CH2CO             C2H2              S-CH2             CH3OH             CH2OH             
CH3O              CH4               CH3O2             C2H3              C2H4              
C2H5              HCCOH             CH2CHO            CH3CHO            H2C2              
C2H5O             N-C3H7            C2H6              C3H8              C3H6              
C3H3              P-C3H4            A-C3H4            S-C3H5            N-C4H3            
C2H3CHO           A-C3H5            C2O               C4H4              C3H2              
C3H2O             C4H2              I-C4H3            T-C3H5            C3H5O             
C4H               C8H2              C6H2              C4H6              N-C4H5            
I-C4H5            A1           	    N-C7H16           C5H11             P-C4H9            
C7H15             P-C4H8            C5H10             C7H14             C7H15O            
C3H7CHO           C4H7              C5H9              C4H7O             N-C3H7O           
I-C8H18           Y-C7H15           I-C4H8            I-C3H7            T-C4H9            
C-C8H17           Y-C7H14           D-C8H17O          CH3COCH3          I-C4H7            
X-C7H13           I-C3H5CHO         T-C4H9O           I-C4H7O           C5H4CH2           
A1-               A1C2H2            A1C2H3            A1C2H             A1C2H*            
A1C2H3*           A2-               A2                A2*               A2C2H2A           
A2C2H2B           A2C2HA            A2C2HB            A2C2HA*           A2C2HB*           
A2R5              A2R5-             A2R5C2H2          A2R5C2H           A2R5C2H*          
P2                P2-               A3-               A3                A3*               
A3R5-             A3R5              A4                A4-               A4R5              
FLTN              C5H6              C5H5              T-C5H5O           C5H4O             
S-C5H5O           C9H8              C9H7              A1CH2             C9H6O             
O-C6H4            A1CH3             A1OH              HOA1CH3           OA1CH3            
A1CH2O            A1CH2OH           A1CHO             A1O               A1CH3*            
A1C2H4            A1C2H5            C8H9O2            C8H8OOH           OC8H7OOH          
A1CH3CH3          A1CH3CH2          A1CH3CHO          A2CH3             A1CHOCH2          
A1CHOCHO          A2OH              A2CH2             A2CH2O            A2CHO             
A2O               OC6H4O            C5H81-3           C7H13             C6H13             
OCHO              HOCHO             HOCH2O            O2CHO             HO2CHO            
CH3CO             CH3CO2            CH3OCO            C2H5O2            CH3CO3            
CH3CO3H           C3H6O1-2          C2H5CO            CH3COCH2          C2H5CHO           
CH3COCH2O         C3H6OOH1-2        I-C3H7O2          N-C3H7O2          CH3COCH2O2        
CH3COCH2O2H       C6H12-1           C2H5COCH2         P-C4H9O2          C4H9CO            
N-C4H9CHO         C5H10OOH1-3       C5H11O2-1         NC5KET13          C5H10OOH1-3O2     
C6H11             C6H13O-1          C12H26          C5H11CO           N-C5H11CHO        
C6H12OOH1-3       C6H13O2-1         NC6KET13          C6H12OOH1-3O2     C6H13CO           
N-C6H13CHO        C7H14OOH1-3       C7H15O2-1         NC7KET13          C7H14OOH1-3O2     
C8H15             C8H16-1           C8H17             C8H17O2-1         C7H15CO           
N-C7H15CHO        C8OOH1-3          C8OOH1-3O2        C8KET1-3          C9H17             
C9H18-1           C9H19             C9H19O2-1         C8H17CO           N-C8H17CHO        
C9OOH1-3          C9OOH1-3O2        C9KET1-3          C10H19            C10H20-1          
C10H21            C10H21O2-1        C9H19CO           C10OOH1-3         C10OOH1-3O2       
C10KET1-3         C11H21            C11H22-1          C11H23-1          C11H23O2-1        
C12H23            C12H24            C12H25            C12H25O           C12H25O2          
C12O-R4           C12O-R5           C12OOH-T6         C12OOH-T7         C12OOH-T5         
C12OOHO2-T6       C12OOHO2-T7       C12KET-T6         C12KET-T7         N-C9H19CHO        
C4H8-2            C2H5O2H           CH3CHCO           CH3CHCHO          HE
END
REACTIONS
!BURKE ET AL'S H2/O2 MECH
H+O2<=>O+OH                              1.040E+14    0.000  15286.09
O+H2<=>H+OH                              3.818E+12    0.000   7947.90
     DUPLICATE
O+H2<=>H+OH                              8.792E+14    0.000  19169.93
     DUPLICATE
H2+OH<=>H2O+H                            2.160E+08    1.510   3429.97
2OH<=>O+H2O                              3.340E+04    2.420  -1929.97
H2+M<=>2H+M                              4.577E+19   -1.400 104380.02
H2/2.50/ H2O/12.00/ AR/0.00/ HE/0.00/ CO/1.90/ CO2/3.80/ 
H2+AR<=>2H+AR                            5.840E+18   -1.100 104380.02
H2+HE<=>2H+HE                            5.840E+18   -1.100 104380.02
2O+M<=>O2+M                              6.165E+15   -0.500      0.00
H2/2.50/ H2O/12.00/ AR/0.00/ HE/0.00/ CO/1.90/ CO2/3.80/ 
2O+AR<=>O2+AR                            1.886E+13    0.000  -1788.00
2O+HE<=>O2+HE                            1.886E+13    0.000  -1788.00
O+H+M<=>OH+M                             4.714E+18   -1.000      0.00
H2/2.50/ H2O/12.00/ AR/0.75/ HE/0.75/ CO/1.90/ CO2/3.80/ 
H2O+M<=>H+OH+M                           6.064E+27   -3.322 120789.91
N2/2.00/ O2/1.50/ H2/3.00/ H2O/0.00/ HE/1.10/ CO/1.90/ CO2/3.80/ 
2H2O<=>H+OH+H2O                          1.006E+26   -2.440 120179.97
!USE THIS IF MAIN BATH GAS IS N2
H+O2(+M)<=>HO2(+M)                       4.651E+12    0.440      0.00
O2/0.78/ H2/2.00/ H2O/14.00/ AR/0.67/ HE/0.80/ CO/1.90/ CO2/3.80/ 
     LOW  /  6.366E+20   -1.720    524.86 /
     TROE/     0.5     1E-30 1E+30 /
!!USE THIS IF MAIN BATH GAS IS AR OR HE
!H+O2(+M)<=>HO2(+M)                       4.651E+12    0.440      0.00
!N2/1.50/ O2/1.10/ H2/3.00/ H2O/21.00/ HE/1.20/ CO/2.70/ CO2/5.40/ 
!     LOW  /  9.042E+19   -1.500    492.11 /
!     TROE/     0.5     1E-30 1E+30        /
HO2+H<=>H2+O2                            2.750E+06    2.090  -1451.00
HO2+H<=>2OH                              7.079E+13    0.000    294.93
HO2+O<=>O2+OH                            2.850E+10    1.000   -723.95
HO2+OH<=>H2O+O2                          2.890E+13    0.000   -496.89
2HO2<=>H2O2+O2                           4.200E+14    0.000  11982.07
     DUPLICATE
2HO2<=>H2O2+O2                           1.300E+11    0.000  -1629.30
     DUPLICATE
H2O2(+M)<=>2OH(+M)                       2.000E+12    0.900  48749.04
N2/1.50/ O2/1.20/ H2/3.70/ H2O/7.50/ HE/0.65/ H2O2/7.70/ CO/2.80/ CO2/1.60/ 
     LOW  /  2.490E+24   -2.300  48750.00 /
     TROE/    0.43     1E-30 1E+30        /
H2O2+H<=>H2O+OH                          2.410E+13    0.000   3969.89
H2O2+H<=>HO2+H2                          4.820E+13    0.000   7950.05
H2O2+O<=>OH+HO2                          9.550E+06    2.000   3969.89
H2O2+OH<=>HO2+H2O                        1.740E+12    0.000    318.12
     DUPLICATE
H2O2+OH<=>HO2+H2O                        7.590E+13    0.000   7270.08
     DUPLICATE
!BASE CHEMISTRY BEYOND THIS
CO+O(+M)<=>CO2(+M)                       1.800E+10    0.000   2385.28
H2/2.00/ H2O/12.00/ AR/0.70/ CO/1.75/ CO2/3.60/ 
     LOW  /  1.550E+24   -2.790   4192.16 /
!     FCCHECK/       0         0      0         0      1         0
     TROE/       1     1.00 10000000.00 10000000.00 /
CO+OH<=>CO2+H                            7.046E+04    2.053   -355.64
     DUPLICATE
CO+OH<=>CO2+H                            5.757E+12   -0.664    331.74
     DUPLICATE
CO+O2<=>CO2+O                            1.050E+12    0.000  47700.05
CO+HO2<=>CO2+OH                          1.570E+05    2.180  17942.64
HCO+H<=>CO+H2                            1.200E+14    0.000      0.00
HCO+O<=>CO+OH                            3.000E+13    0.000      0.00
HCO+O<=>CO2+H                            3.000E+13    0.000      0.00
HCO+OH<=>CO+H2O                          3.020E+13    0.000      0.00
HCO+M<=>CO+H+M                           4.748E+11    0.659  14873.80
H2/2.00/ H2O/0.00/ CO/1.75/ CO2/3.60/ 
HCO+O2<=>CO+HO2                          7.580E+12    0.000    409.89
C+OH<=>CO+H                              5.000E+13    0.000      0.00
C+O2<=>CO+O                              5.800E+13    0.000    576.00
CH+H<=>C+H2                              1.650E+14    0.000      0.00
CH+O<=>CO+H                              5.700E+13    0.000      0.00
CH+OH<=>HCO+H                            3.000E+13    0.000      0.00
CH+H2<=>T-CH2+H                          1.080E+14    0.000   3109.46
CH+H2(+M)<=>CH3(+M)                      1.970E+12    0.430   -370.46
H2/2.00/ H2O/12.00/ AR/0.70/ CO/1.75/ CO2/3.60/ CH4/2.00/ C2H6/3.00/ 
     LOW  /  4.820E+25   -2.800    590.34 /
     TROE/   0.578      122      2535      9365 /
CH+H2O<=>CH2O+H                          5.710E+12    0.000   -755.26
CH+O2<=>HCO+O                            6.710E+13    0.000      0.00
CH+CO(+M)<=>HCCO(+M)                     5.000E+13    0.000      0.00
H2/2.00/ H2O/12.00/ AR/0.70/ CO/1.75/ CO2/3.60/ CH4/2.00/ C2H6/3.00/ 
     LOW  /  2.690E+28   -3.740   1935.95 /
     TROE/  0.5757      237      1652      5069 /
CH+CO2<=>HCO+CO                          1.900E+14    0.000  15791.11
CO+H2(+M)<=>CH2O(+M)                     4.300E+07    1.500  79600.86
H2/2.00/ H2O/12.00/ AR/0.70/ CO/1.75/ CO2/3.60/ CH4/2.00/ C2H6/3.00/ 
     LOW  /  5.070E+27   -3.420  84349.90 /
     TROE/   0.932      197      1540     10300 /
HCO+H(+M)<=>CH2O(+M)                     1.090E+12    0.480   -260.52
H2/2.00/ H2O/12.00/ AR/0.70/ CO/1.75/ CO2/3.60/ CH4/2.00/ C2H6/3.00/ 
     LOW  /  2.470E+24   -2.570    425.43 /
     TROE/  0.7824      271      2755      6570 /
T-CH2+H(+M)<=>CH3(+M)                    6.000E+14    0.000      0.00
H2/2.00/ H2O/12.00/ AR/0.70/ CO/1.75/ CO2/3.60/ CH4/2.00/ C2H6/3.00/ 
     LOW  /  1.040E+26   -2.760   1598.95 /
     TROE/   0.562       91      5836      8552 /
T-CH2+O<=>HCO+H                          8.000E+13    0.000      0.00
T-CH2+OH<=>CH2O+H                        2.000E+13    0.000      0.00
T-CH2+OH<=>CH+H2O                        1.130E+07    2.000   2999.52
T-CH2+H2<=>H+CH3                         5.000E+05    2.000   7229.92
T-CH2+O2=>CO2+2H                         5.800E+12    0.000   1500.96
T-CH2+O2<=>CH2O+O                        2.400E+12    0.000   1500.96
T-CH2+O2=>OH+H+CO                        5.000E+12    0.000   1500.96
T-CH2+HO2<=>CH2O+OH                      2.000E+13    0.000      0.00
T-CH2+C<=>C2H+H                          5.000E+13    0.000      0.00
T-CH2+CO(+M)<=>CH2CO(+M)                 8.100E+11    0.500   4510.04
H2/2.00/ H2O/12.00/ AR/0.70/ CO/1.75/ CO2/3.60/ CH4/2.00/ C2H6/3.00/ 
     LOW  /  2.690E+33   -5.110   7096.08 /
     TROE/  0.5907      275      1226      5185 /
T-CH2+CH<=>C2H2+H                        4.000E+13    0.000      0.00
2T-CH2<=>C2H2+H2                         1.600E+15    0.000  11943.12
2T-CH2=>C2H2+2H                          2.000E+14    0.000  10989.48
S-CH2+N2<=>T-CH2+N2                      1.500E+13    0.000    599.90
S-CH2+AR<=>T-CH2+AR                      9.000E+12    0.000    599.90
S-CH2+H<=>CH+H2                          3.000E+13    0.000      0.00
S-CH2+O<=>CO+H2                          1.500E+13    0.000      0.00
S-CH2+O<=>HCO+H                          1.500E+13    0.000      0.00
S-CH2+OH<=>CH2O+H                        3.000E+13    0.000      0.00
S-CH2+H2<=>CH3+H                         7.000E+13    0.000      0.00
S-CH2+O2<=>H+OH+CO                       2.800E+13    0.000      0.00
S-CH2+O2<=>CO+H2O                        1.200E+13    0.000      0.00
S-CH2+H2O(+M)<=>CH3OH(+M)                4.820E+17   -1.160   1144.84
H2/2.00/ H2O/12.00/ AR/0.70/ CO/1.75/ CO2/3.60/ CH4/2.00/ C2H6/3.00/ 
     LOW  /  1.880E+38   -6.360   5040.63 /
     TROE/  0.6027      208      3922     10180 /
S-CH2+H2O<=>T-CH2+H2O                    3.000E+13    0.000      0.00
S-CH2+H2O=>H2+CH2O                       6.820E+10    0.250   -934.51
S-CH2+CO<=>T-CH2+CO                      9.000E+12    0.000      0.00
S-CH2+CO2<=>T-CH2+CO2                    7.000E+12    0.000      0.00
S-CH2+CO2<=>CH2O+CO                      1.400E+13    0.000      0.00
CH2O+H(+M)<=>CH2OH(+M)                   5.400E+11    0.450   3599.43
H2/2.00/ H2O/12.00/ AR/0.70/ CO/1.75/ CO2/3.60/ CH4/2.00/ C2H6/3.00/ 
     LOW  /  1.270E+32   -4.820   6529.64 /
     TROE/  0.7187      103      1291      4160 /
CH2O+H(+M)<=>CH3O(+M)                    5.400E+11    0.450   2600.38
H2/2.00/ H2O/12.00/ AR/0.70/ CO/1.75/ CO2/3.60/ CH4/2.00/ C2H6/3.00/ 
     LOW  /  2.200E+30   -4.800   5559.27 /
     TROE/   0.758       94      1555      4200 /
CH2O+H<=>HCO+H2                          5.740E+07    1.900   2741.40
CH2O+O<=>HCO+OH                          3.900E+13    0.000   3539.67
CH2O+OH<=>HCO+H2O                        3.430E+09    1.180   -446.94
CH2O+O2<=>HCO+HO2                        1.000E+14    0.000  40000.00
CH2O+HO2<=>HCO+H2O2                      5.600E+06    2.000  12000.48
CH2O+CH<=>CH2CO+H                        9.460E+13    0.000   -516.25
CH3+H(+M)<=>CH4(+M)                      6.920E+13    0.180      0.00
H2/2.00/ H2O/6.00/ AR/0.70/ CO/1.50/ CO2/2.00/ CH4/3.00/ C2H6/3.00/ 
     LOW  /  3.470E+38   -6.300   5074.09 /
     TROE/   0.783       74      2941      6964 /
CH3+O<=>CH2O+H                           5.060E+13    0.000      0.00
CH3+O=>H+H2+CO                           3.370E+13    0.000      0.00
CH3+OH(+M)<=>CH3OH(+M)                   2.790E+18   -1.430   1331.26
H2/2.00/ H2O/12.00/ AR/0.70/ CO/1.75/ CO2/3.60/ CH4/2.00/ C2H6/3.00/ 
     LOW  /  4.000E+36   -5.920   3140.54 /
     TROE/   0.412      195      5900      6394 /
CH3+OH<=>T-CH2+H2O                       5.600E+07    1.600   5420.65
CH3+OH=>H2+CH2O                          8.000E+09    0.000  -1754.30
CH3+OH<=>S-CH2+H2O                       6.440E+17   -1.340   1417.30
CH3+O2<=>CH3O+O                          1.380E+13    0.000  30521.03
CH3+O2<=>CH2O+OH                         5.870E+11    0.000  13840.82
CH3+O2(+M)<=>CH3O2(+M)                   1.010E+08    1.630      0.00
     LOW  /  3.820E+31   -4.890   3432.12 /
     TROE/   0.045    880.1   2.5E+09 1.786E+09 /
CH3O2+CH3<=>2CH3O                        1.000E+13    0.000  -1199.81
2CH3O2=>2CH3O+O2                         1.400E+16   -1.610   1859.46
CH3O2+HO2=>CH3O+OH+O2                    2.470E+11    0.000  -1570.27
CH3O2+CH2O=>CH3O+OH+HCO                  1.990E+12    0.000  11670.65
CH3+HO2<=>CH3O+OH                        1.000E+13    0.000      0.00
CH3+HO2<=>CH4+O2                         3.610E+12    0.000      0.00
CH3+H2O2<=>CH4+HO2                       2.450E+04    2.470   5179.25
CH3+C<=>C2H2+H                           5.000E+13    0.000      0.00
CH3+CH<=>C2H3+H                          3.000E+13    0.000      0.00
CH3+HCO<=>CH4+CO                         2.650E+13    0.000      0.00
CH3+CH2O<=>CH4+HCO                       3.320E+03    2.810   5860.42
CH3+T-CH2<=>C2H4+H                       1.000E+14    0.000      0.00
CH3+S-CH2<=>C2H4+H                       1.200E+13    0.000   -571.22
2CH3<=>C2H5+H                            6.840E+12    0.100  10599.90
CH3O+H(+M)<=>CH3OH(+M)                   2.430E+12    0.520     50.19
H2/2.00/ H2O/12.00/ AR/0.70/ CO/1.75/ CO2/3.60/ CH4/2.00/ C2H6/3.00/ 
     LOW  /  4.660E+41   -7.440  14079.83 /
     TROE/     0.7      100     90000     10000 /
CH3O+H<=>CH2OH+H                         4.150E+07    1.630   1924.00
CH3O+H<=>CH2O+H2                         2.000E+13    0.000      0.00
CH3O+H<=>CH3+OH                          1.500E+12    0.500   -109.94
CH3O+H<=>S-CH2+H2O                       2.620E+14   -0.230   1070.75
CH3O+O<=>CH2O+OH                         1.000E+13    0.000      0.00
CH3O+OH<=>CH2O+H2O                       5.000E+12    0.000      0.00
CH3O+O2<=>CH2O+HO2                       4.280E-13    7.600  -3530.11
CH2OH+H(+M)<=>CH3OH(+M)                  1.060E+12    0.500     86.04
H2/2.00/ H2O/12.00/ AR/0.70/ CO/1.75/ CO2/3.60/ CH4/2.00/ C2H6/3.00/ 
     LOW  /  4.360E+31   -4.650   5081.26 /
     TROE/     0.6      100      9000     10000 /
CH2OH+H<=>CH2O+H2                        2.000E+13    0.000      0.00
CH2OH+H<=>CH3+OH                         1.650E+11    0.650   -284.42
CH2OH+H<=>S-CH2+H2O                      3.280E+13   -0.090    609.46
CH2OH+O<=>CH2O+OH                        1.000E+13    0.000      0.00
CH2OH+OH<=>CH2O+H2O                      5.000E+12    0.000      0.00
CH2OH+O2<=>CH2O+HO2                      1.800E+13    0.000    901.05
CH4+H<=>CH3+H2                           6.600E+08    1.620  10841.30
CH4+O<=>CH3+OH                           1.020E+09    1.500   8599.43
CH4+OH<=>CH3+H2O                         1.000E+08    1.600   3119.02
CH4+CH<=>C2H4+H                          6.000E+13    0.000      0.00
CH4+T-CH2<=>2CH3                         2.460E+06    2.000   8269.60
CH4+S-CH2<=>2CH3                         1.600E+13    0.000   -571.22
CH3OH+H<=>CH2OH+H2                       1.700E+07    2.100   4870.94
CH3OH+H<=>CH3O+H2                        4.200E+06    2.100   4870.94
CH3OH+O<=>CH2OH+OH                       3.880E+05    2.500   3099.90
CH3OH+O<=>CH3O+OH                        1.300E+05    2.500   5000.00
CH3OH+OH<=>CH2OH+H2O                     1.440E+06    2.000   -841.30
CH3OH+OH<=>CH3O+H2O                      6.300E+06    2.000   1500.96
CH3OH+CH3<=>CH2OH+CH4                    3.000E+07    1.500   9940.25
CH3OH+CH3<=>CH3O+CH4                     1.000E+07    1.500   9940.25
C2H+H(+M)<=>C2H2(+M)                     1.000E+17   -1.000      0.00
H2/2.00/ H2O/12.00/ AR/0.70/ CO/1.75/ CO2/3.60/ CH4/2.00/ C2H6/3.00/ 
     LOW  /  2.600E+33   -4.800   1900.10 /
     TROE/  0.6464      132      1315      5566 /
C2H+O<=>CH+CO                            5.000E+13    0.000      0.00
C2H+OH<=>H+HCCO                          2.000E+13    0.000      0.00
C2H+O2<=>HCO+CO                          1.000E+13    0.000   -755.26
C2H+H2<=>C2H2+H                          3.310E+06    2.260    901.05
HCCO+H<=>S-CH2+CO                        1.000E+14    0.000      0.00
HCCO+O<=>H+2CO                           1.000E+14    0.000      0.00
HCCO+O2<=>OH+2CO                         4.200E+10    0.000    853.25
HCCO+CH<=>C2H2+CO                        5.000E+13    0.000      0.00
HCCO+T-CH2<=>C2H3+CO                     3.000E+13    0.000      0.00
2HCCO<=>C2H2+2CO                         1.000E+13    0.000      0.00
C2H2+H(+M)<=>C2H3(+M)                    1.710E+10    1.270   2707.93
H2/2.00/ H2O/12.00/ AR/0.70/ CO/1.75/ CO2/3.60/ CH4/2.00/ C2H6/3.00/ 
     LOW  /  6.340E+31   -4.660   3781.07 /
!     FCCHECK/  0.2122    -10212      0         1      0         1
     TROE/  0.2122     1.00    -10212 /
C2H2+O<=>HCCO+H                          8.100E+06    2.000   1900.10
C2H2+O<=>T-CH2+CO                        1.250E+07    2.000   1900.10
C2H+OH<=>C2H2+O                          1.810E+13    0.000      0.00
C2H2+OH<=>C2H+H2O                        2.630E+06    2.140  17060.23
C2H2+OH<=>HCCOH+H                        2.410E+06    2.000  12712.72
C2H2+OH<=>CH2CO+H                        7.530E+06    1.550   2105.64
C2H2+OH<=>CH3+CO                         1.280E+09    0.730   2578.87
CH2CO+H<=>HCCO+H2                        5.000E+13    0.000   7999.52
CH2CO+H<=>CH3+CO                         1.500E+09    1.380    614.24
CH2CO+O<=>HCCO+OH                        1.000E+13    0.000   7999.52
CH2CO+O<=>T-CH2+CO2                      1.750E+12    0.000   1350.38
CH2CO+OH<=>HCCO+H2O                      7.500E+12    0.000   2000.48
HCCOH+H<=>CH2CO+H                        1.000E+13    0.000      0.00
C2H3+H(+M)<=>C2H4(+M)                    6.080E+12    0.270    279.64
H2/2.00/ H2O/12.00/ AR/0.70/ CO/1.75/ CO2/3.60/ CH4/2.00/ C2H6/3.00/ 
     LOW  /  1.400E+30   -3.860   3319.79 /
     TROE/   0.782    207.5      2663      6095 /
C2H3+H<=>C2H2+H2                         3.000E+13    0.000      0.00
C2H3+O<=>CH2CHO                          1.030E+13    0.210   -427.82
C2H3+OH<=>C2H2+H2O                       5.000E+12    0.000      0.00
C2H3+O2<=>C2H2+HO2                       1.340E+06    1.610   -384.80
C2H3+O2<=>CH2CHO+O                       3.030E+11    0.290     11.95
C2H3+O2<=>HCO+CH2O                       4.580E+16   -1.390   1015.77
CH2CHO<=>CH2CO+H                         1.320E+34   -6.570  49457.46
CH2CHO<=>CH3+CO                          6.510E+34   -6.870  47194.07
CH2CHO+O<=>CH2O+HCO                      3.170E+13    0.030   -394.36
CH2CHO+O2=>OH+CO+CH2O                    1.810E+10    0.000      0.00
CH2CHO+O2=>OH+2HCO                       2.350E+10    0.000      0.00
CH2CHO+H<=>CH3+HCO                       2.200E+13    0.000      0.00
CH2CHO+H<=>CH2CO+H2                      1.100E+13    0.000      0.00
CH2CHO+OH<=>H2O+CH2CO                    1.200E+13    0.000      0.00
CH2CHO+OH<=>HCO+CH2OH                    3.010E+13    0.000      0.00
CH3+HCO<=>CH3CHO                         5.000E+13    0.000      0.00
CH3CHO+O<=>CH2CHO+OH                     2.920E+12    0.000   1809.27
CH3CHO+H<=>CH2CHO+H2                     2.050E+09    1.160   2404.40
CH3CHO+H=>CH3+CO+H2                      2.050E+09    1.160   2404.40
CH3CHO+O=>CH3+CO+OH                      2.920E+12    0.000   1809.27
CH3CHO+O2=>CH3+CO+HO2                    3.010E+13    0.000  39149.14
CH3CHO+OH=>CH3+CO+H2O                    2.340E+10    0.730  -1113.77
CH3CHO+HO2=>CH3+CO+H2O2                  3.010E+12    0.000  11924.00
CH3CHO+CH3=>CH3+CO+CH4                   2.720E+06    1.770   5920.17
C2H4(+M)<=>H2C2+H2(+M)                   8.000E+12    0.440  88800.19
H2/2.00/ H2O/6.00/ AR/0.70/ CO/1.75/ CO2/3.60/ CH4/2.00/ C2H6/3.00/ 
     LOW  /  7.000E+50   -9.310  99899.62 /
     TROE/   0.735      180      1035      5417 /
C2H4+H(+M)<=>C2H5(+M)                    1.370E+09    1.460   1355.16
H2/2.00/ H2O/12.00/ AR/0.70/ CO/1.75/ CO2/3.60/ CH4/2.00/ C2H6/3.00/ 
     LOW  /  2.030E+39   -6.640   5769.60 /
     TROE/  -0.569      299     -9147     152.4 /
C2H4+H<=>C2H3+H2                         1.270E+05    2.750  11649.14
C2H4+O<=>CH2CHO+H                        7.660E+09    0.880   1140.06
C2H4+O<=>T-CH2+CH2O                      7.150E+04    2.470    929.73
C2H4+O<=>CH3+HCO                         3.890E+08    1.360    886.71
C2H4+OH<=>C2H3+H2O                       1.310E-01    4.200   -860.42
C2H4+OH<=>C2H5O                          3.750E+36   -7.800   7060.23
C2H4+CH3<=>C2H3+CH4                      2.270E+05    2.000   9199.33
C2H4+CH3(+M)<=>N-C3H7(+M)                2.550E+06    1.600   5700.29
H2/2.00/ H2O/12.00/ AR/0.70/ CO/1.75/ CO2/3.60/ CH4/2.00/ C2H6/3.00/ 
     LOW  /  3.000E+63  -14.600  18169.22 /
     TROE/  0.1894      277      8748      7891 /
C2H5+H(+M)<=>C2H6(+M)                    5.210E+17   -0.990   1579.83
H2/2.00/ H2O/12.00/ AR/0.70/ CO/1.75/ CO2/3.60/ CH4/2.00/ C2H6/3.00/ 
     LOW  /  1.990E+41   -7.080   6684.99 /
     TROE/  0.8422      125      2219      6882 /
C2H5+H<=>C2H4+H2                         2.000E+12    0.000      0.00
C2H5+CH3<=>C2H4+CH4                      1.180E+04    2.450   2920.65
C2H5+O<=>C2H5O                           3.170E+13    0.030   -394.36
C2H5O<=>CH3+CH2O                         1.320E+20   -2.020  20750.48
C2H5O<=>CH3CHO+H                         5.450E+15   -0.690  22229.92
C2H5O+O2<=>CH3CHO+HO2                    2.290E+10    0.000    874.76
C2H5+O2<=>C2H4+HO2                       1.920E+07    1.020  -2033.94
C3H8(+M)<=>C2H5+CH3(+M)                  1.290E+37   -5.840  97387.67
H2/2.00/ H2O/12.00/ AR/0.70/ CO/1.75/ CO2/3.60/ CH4/2.00/ C2H6/3.00/ 
     LOW  /  5.640E+74  -15.740  98718.93 /
     TROE/    0.31       50      3000      9000 /
C2H6(+M)<=>2CH3(+M)                      1.880E+50   -9.720 107342.26
H2/2.00/ H2O/12.00/ AR/0.70/ CO/1.75/ CO2/3.60/ CH4/2.00/ C2H6/3.00/ 
     LOW  /  3.720E+65  -13.140 101579.83 /
     TROE/    0.39      100      1900      6000 /
C2H6+H<=>C2H5+H2                         1.700E+05    2.700   5740.92
C2H6+O<=>C2H5+OH                         3.170E+01    3.800   3130.98
C2H6+OH<=>C2H5+H2O                       1.610E+06    2.220    740.92
C2H6+S-CH2<=>C2H5+CH3                    4.000E+13    0.000   -549.71
C2H6+CH3<=>C2H5+CH4                      8.430E+14    0.000  22256.21
N-C3H7+O<=>C2H5+CH2O                     3.170E+13    0.030   -394.36
N-C3H7+H(+M)<=>C3H8(+M)                  3.610E+13    0.000      0.00
H2/2.00/ H2O/12.00/ AR/0.70/ CO/1.75/ CO2/3.60/ CH4/2.00/ C2H6/3.00/ 
     LOW  /  4.420E+61  -13.550  11357.55 /
     TROE/   0.315      369      3285      6667 /
N-C3H7+OH<=>C3H6+H2O                     2.410E+13    0.000      0.00
N-C3H7+CH3<=>C3H6+CH4                    3.310E+12    0.000   -769.60
C3H6+H(+M)<=>N-C3H7(+M)                  3.060E+14   -0.370   4032.03
H2/2.00/ H2O/12.00/ AR/0.70/ CO/1.75/ CO2/3.60/ CH4/2.00/ C2H6/3.00/ 
     LOW  /  6.260E+38   -6.660   7000.48 /
     TROE/       1     1000      1310     48097 /
N-C3H7+O2<=>C3H6+HO2                     3.700E+16   -1.630   3417.78
C3H8+H<=>N-C3H7+H2                       5.800E-02    4.710   6211.76
C3H8+O<=>N-C3H7+OH                       2.350E+00    4.090   2545.41
C3H8+OH<=>N-C3H7+H2O                     5.360E+06    2.010    365.68
C3H8+CH3<=>N-C3H7+CH4                    9.030E-01    3.650   7153.44
C3H8+HO2<=>N-C3H7+H2O2                   9.640E+03    2.600  13910.13
C2H2+M<=>H2C2+M                          2.450E+15   -0.640  49698.85
H2/2.00/ H2O/6.00/ AR/0.70/ CO/1.75/ CO2/3.60/ CH4/2.00/ C2H6/3.00/ 
H2C2+O2<=>T-CH2+CO2                      3.300E+12    0.000      0.00
H2C2+O2<=>2HCO                           1.000E+13    0.000      0.00
C2H2+S-CH2<=>C3H3+H                      1.900E+14    0.000      0.00
P-C3H4+H<=>C2H2+CH3                      3.460E+12    0.440   5463.67
A-C3H4+H<=>C2H2+CH3                      8.950E+13   -0.020  11250.00
C2H2+CH3<=>S-C3H5                        7.450E+43  -10.130  18522.94
C2H2+C2H<=>N-C4H3                        7.800E+13    0.000      0.00
C2H2+HCCO<=>C3H3+CO                      1.000E+11    0.000   2999.52
C2H3+H2O2<=>C2H4+HO2                     1.210E+10    0.000   -595.12
C2H3+HCO<=>C2H4+CO                       9.000E+13    0.000      0.00
C2H3+HCO<=>C2H3CHO                       1.800E+13    0.000      0.00
C2H3+CH3<=>C2H2+CH4                      9.030E+12    0.000   -764.82
C3H6<=>C2H3+CH3                          4.040E+42   -7.670 111830.78
C2H3+CH3<=>A-C3H5+H                      1.930E+18   -1.250   7669.69
A-C3H5+H<=>C3H6                          5.930E+54  -11.760  23549.24
C2H+CH3<=>C3H3+H                         2.410E+13    0.000      0.00
C2O+H<=>CH+CO                            5.000E+13    0.000      0.00
C2O+O<=>2CO                              5.000E+13    0.000      0.00
C2O+OH<=>H+2CO                           2.000E+13    0.000      0.00
C2O+O2<=>O+2CO                           2.000E+13    0.000      0.00
HCCO+CH3<=>C2H4+CO                       5.000E+13    0.000      0.00
HCCO+OH<=>C2O+H2O                        3.000E+13    0.000      0.00
HCCO+OH<=>2HCO                           1.000E+13    0.000      0.00
CH2CO+OH<=>CH2OH+CO                      5.000E+12    0.000      0.00
CH2CO+T-CH2<=>C2H4+CO                    1.000E+12    0.000      0.00
CH2CO+T-CH2<=>HCCO+CH3                   3.600E+13    0.000  10999.04
CH2CO+CH3<=>C2H5+CO                      9.000E+10    0.000      0.00
CH2CO+CH3<=>HCCO+CH4                     7.500E+12    0.000  12999.52
CH2CHO+CH3<=>C2H5+HCO                    4.900E+14   -0.500      0.00
C2H4+C2H<=>C4H4+H                        1.200E+13    0.000      0.00
C2H4+O2<=>C2H3+HO2                       4.220E+13    0.000  62100.86
C2H4+O2=>CH3+CO2+H                       4.900E+12    0.420  75800.67
C2H5+HCO<=>C2H6+CO                       1.200E+14    0.000      0.00
C2H5+HO2<=>C2H6+O2                       3.000E+11    0.000      0.00
C2H5+HO2<=>C2H4+H2O2                     3.000E+11    0.000      0.00
C2H5+HO2<=>C2H5O+OH                      3.100E+13    0.000      0.00
C2H6+HO2<=>C2H5+H2O2                     2.610E+02    3.370  15913.00
C3H2+O<=>C3H2O                           1.360E+14    0.000      0.00
C3H2+OH<=>C2H2+HCO                       1.000E+13    0.000      0.00
C3H2+O2<=>HCCO+CO+H                      1.250E+11    0.000    999.04
C3H2+CH<=>C4H2+H                         5.000E+13    0.000      0.00
C3H2+T-CH2<=>N-C4H3+H                    5.000E+13    0.000      0.00
C3H2+CH3<=>C4H4+H                        5.000E+12    0.000      0.00
C3H2+HCCO<=>N-C4H3+CO                    1.000E+13    0.000      0.00
C2H+HCO<=>C3H2O                          5.000E+13    0.000      0.00
C3H2O+H<=>C2H2+HCO                       3.460E+12    0.440   5463.67
C3H2O+H=>C2H+CO+H2                       2.050E+09    1.160   2404.40
C3H2O+O=>C2H+CO+OH                       2.920E+12    0.000   1809.27
C3H2O+O2=>C2H+CO+HO2                     3.010E+13    0.000  39149.14
C3H2O+OH=>C2H+CO+H2O                     2.340E+10    0.730  -1113.77
C3H2O+HO2=>C2H+CO+H2O2                   3.010E+12    0.000  11924.00
C3H2O+CH3=>C2H+CO+CH4                    2.720E+06    1.770   5920.17
C3H2+H(+M)<=>C3H3(+M)                    1.020E+13    0.270    279.64
H2/2.00/ H2O/12.00/ AR/0.70/ CO/1.75/ CO2/3.60/ CH4/2.00/ C2H6/3.00/ 
     LOW  /  2.800E+30   -3.860   3319.79 /
     TROE/   0.782    207.5      2663      6095 /