THERMO ALL
   200.000  1000.000  5000.000
N2                000000N   2               G    300.00   5000.00 1000.00      1
 2.92664000E+00 1.48797700E-03-5.68476100E-07 1.00970400E-10-6.75335100E-15    2
-9.22797700E+02 5.98052800E+00 3.29867700E+00 1.40824000E-03-3.96322200E-06    3
 5.64151500E-09-2.44485500E-12-1.02090000E+03 3.95037200E+00                   4
C7H16             000000H  16C   7          G    300.00   5000.00 1391.00      1
 2.22148969E+01 3.47675750E-02-1.18407129E-05 1.83298478E-09-1.06130266E-13    2
-3.42760081E+04-9.23040196E+01-1.26836187E+00 8.54355820E-02-5.25346786E-05    3
 1.62945721E-08-2.02394925E-12-2.56586565E+04 3.53732912E+01                   4
O2                000000O   2               G    300.00   5000.00 1000.00      1
 3.69757800E+00 6.13519700E-04-1.25884200E-07 1.77528100E-11-1.13643500E-15    2
-1.23393000E+03 3.18916600E+00 3.21293600E+00 1.12748600E-03-5.75615000E-07    3
 1.31387700E-09-8.76855400E-13-1.00524900E+03 6.03473800E+00                   4
CO2               000000O   2C   1          G    300.00   5000.00 1000.00      1
 4.45362300E+00 3.14016900E-03-1.27841100E-06 2.39399700E-10-1.66903300E-14    2
-4.89669600E+04-9.55395900E-01 2.27572500E+00 9.92207200E-03-1.04091100E-05    3
 6.86668700E-09-2.11728000E-12-4.83731400E+04 1.01884900E+01                   4
H2O               000000H   2O   1          G    300.00   5000.00 1000.00      1
 2.67214600E+00 3.05629300E-03-8.73026000E-07 1.20099600E-10-6.39161800E-15    2
-2.98992100E+04 6.86281700E+00 3.38684200E+00 3.47498200E-03-6.35469600E-06    3
 6.96858100E-09-2.50658800E-12-3.02081100E+04 2.59023300E+00                   4
CO                000000O   1C   1          G    300.00   5000.00 1000.00      1
 3.02507800E+00 1.44268900E-03-5.63082800E-07 1.01858100E-10-6.91095200E-15    2
-1.42683500E+04 6.10821800E+00 3.26245200E+00 1.51194100E-03-3.88175500E-06    3
 5.58194400E-09-2.47495100E-12-1.43105400E+04 4.84889700E+00                   4
H2                000000H   2               G    300.00   5000.00 1000.00      1
 2.99142300E+00 7.00064400E-04-5.63382900E-08-9.23157800E-12 1.58275200E-15    2
-8.35034000E+02-1.35511000E+00 3.29812400E+00 8.24944200E-04-8.14301500E-07    3
-9.47543400E-11 4.13487200E-13-1.01252100E+03-3.29409400E+00                   4
OH                000000H   1O   1          G    300.00   5000.00 1373.00      1
 2.89080142E+00 1.03580697E-03-2.73888804E-07 3.14233602E-11-1.28582885E-15    2
 3.68169875E+03 5.55206679E+00 3.51661128E+00-2.17634829E-04 6.28785743E-07    3
-2.42056538E-10 2.72367648E-14 3.44025283E+03 2.11149893E+00                   4
H2O2              000000H   2O   2          G    300.00   5000.00 1000.00      1
 4.57316700E+00 4.33613600E-03-1.47468900E-06 2.34890400E-10-1.43165400E-14    2
-1.80069600E+04 5.01137000E-01 3.38875400E+00 6.56922600E-03-1.48501300E-07    3
-4.62580600E-09 2.47151500E-12-1.76631500E+04 6.78536300E+00                   4
HO2               000000H   1O   2          G    300.00   5000.00 1426.00      1
 4.73847074E+00 1.60455274E-03-5.79128791E-07 9.32005029E-11-5.54436074E-15    2
-2.94296200E+02-5.34138593E-01 3.32583730E+00 2.75201316E-03 1.17476160E-06    3
-2.08439503E-09 6.04923316E-13 3.89351744E+02 7.77951112E+00                   4
H                 000000H   1               G    300.00   5000.00 1000.00      1
 2.50104422E+00 0.00000000E+00 0.00000000E+00 0.00000000E+00 0.00000000E+00    2
 2.54747466E+04-4.65341317E-01 2.50104422E+00 0.00000000E+00 0.00000000E+00    3
 0.00000000E+00 0.00000000E+00 2.54747466E+04-4.65341317E-01                   4
O                 000000O   1               G    300.00   5000.00 1000.00      1
 2.54206000E+00-2.75506200E-05-3.10280300E-09 4.55106700E-12-4.36805200E-16    2
 2.92308000E+04 4.92030800E+00 2.94642900E+00-1.63816600E-03 2.42103200E-06    3
-1.60284300E-09 3.89069600E-13 2.91476400E+04 2.96399500E+00                   4
CH3O              000000H   3O   1C   1     G    300.00   3000.00 1000.00      1
 3.77080000E+00 7.87149700E-03-2.65638400E-06 3.94443100E-10-2.11261600E-14    2
 1.27832500E+02 2.92957500E+00 2.10620400E+00 7.21659500E-03 5.33847200E-06    3
-7.37763600E-09 2.07561100E-12 9.78601100E+02 1.31521800E+01                   4
CH2O              000000H   2O   1C   1     G    300.00   5000.00 1000.00      1
 2.99560600E+00 6.68132100E-03-2.62895500E-06 4.73715300E-10-3.21251700E-14    2
-1.53203700E+04 6.91257200E+00 1.65273100E+00 1.26314400E-02-1.88816800E-05    3
 2.05003100E-08-8.41323700E-12-1.48654000E+04 1.37848200E+01                   4
HCO               000000H   1O   1C   1     G    300.00   5000.00 1000.00      1
 3.55727100E+00 3.34557300E-03-1.33500600E-06 2.47057300E-10-1.71385100E-14    2
 3.91632400E+03 5.55229900E+00 2.89833000E+00 6.19914700E-03-9.62308400E-06    3
 1.08982500E-08-4.57488500E-12 4.15992200E+03 8.98361400E+00                   4
CH2               000000H   2C   1          G    250.00   4000.00 1000.00      1
 3.63640800E+00 1.93305700E-03-1.68701600E-07-1.00989900E-10 1.80825600E-14    2
 4.53413400E+04 2.15656100E+00 3.76223700E+00 1.15981900E-03 2.48958500E-07    3
 8.80083600E-10-7.33243500E-13 4.53679100E+04 1.71257800E+00                   4
CH3               000000H   3C   1          G    300.00   5000.00 1000.00      1
 2.84405200E+00 6.13797400E-03-2.23034500E-06 3.78516100E-10-2.45215900E-14    2
 1.64378100E+04 5.45269700E+00 2.43044300E+00 1.11241000E-02-1.68022000E-05    3
 1.62182900E-08-5.86495300E-12 1.64237800E+04 6.78979400E+00                   4
CH4               000000H   4C   1          G    300.00   5000.00 1000.00      1
 1.68347900E+00 1.02372400E-02-3.87512900E-06 6.78558500E-10-4.50342300E-14    2
-1.00807900E+04 9.62339500E+00 7.78741500E-01 1.74766800E-02-2.78340900E-05    3
 3.04970800E-08-1.22393100E-11-9.82522900E+03 1.37221900E+01                   4
C2H2              000000H   2C   2          G    300.00   5000.00 1000.00      1
 4.43677000E+00 5.37603900E-03-1.91281700E-06 3.28637900E-10-2.15671000E-14    2
 2.56676600E+04-2.80033800E+00 2.01356200E+00 1.51904500E-02-1.61631900E-05    3
 9.07899200E-09-1.91274600E-12 2.61244400E+04 8.80537800E+00                   4
C2H3              000000H   3C   2          G    300.00   5000.00 1000.00      1
 5.93346800E+00 4.01774600E-03-3.96674000E-07-1.44126700E-10 2.37864400E-14    2
 3.18543500E+04-8.53031300E+00 2.45927600E+00 7.37147600E-03 2.10987300E-06    3
-1.32164200E-09-1.18478400E-12 3.33522500E+04 1.15562000E+01                   4
C2H4              000000H   4C   2          G    300.00   5000.00 1000.00      1
 3.52841900E+00 1.14851800E-02-4.41838500E-06 7.84460100E-10-5.26684800E-14    2
 4.42828900E+03 2.23038900E+00-8.61488000E-01 2.79616300E-02-3.38867700E-05    3
 2.78515200E-08-9.73787900E-12 5.57304600E+03 2.42114900E+01                   4
C2H5              000000H   5C   2          G    300.00   5000.00 1000.00      1
 7.19048000E+00 6.48407700E-03-6.42806500E-07-2.34787900E-10 3.88087700E-14    2
 1.06745500E+04-1.47808900E+01 2.69070200E+00 8.71913300E-03 4.41983900E-06    3
 9.33870300E-10-3.92777300E-12 1.28704000E+04 1.21382000E+01                   4
HCCO              000000H   1O   1C   2     G    300.00   4000.00 1000.00      1
 6.75807300E+00 2.00040000E-03-2.02760700E-07-1.04113200E-10 1.96516500E-14    2
 1.90151300E+04-9.07126200E+00 5.04796500E+00 4.45347800E-03 2.26828300E-07    3
-1.48209500E-09 2.25074200E-13 1.96589200E+04 4.81843900E-01                   4
CH2CO             000000H   2O   1C   2     G    300.00   5000.00 1000.00      1
 6.03881700E+00 5.80484000E-03-1.92095400E-06 2.79448500E-10-1.45886800E-14    2
-8.58340200E+03-7.65758100E+00 2.97497100E+00 1.21187100E-02-2.34504600E-06    3
-6.46668500E-09 3.90564900E-12-7.63263700E+03 8.67355300E+00                   4
CH3CO             000000H   3O   1C   2     G    300.00   5000.00 1000.00      1
 5.61227900E+00 8.44988600E-03-2.85414700E-06 4.23837600E-10-2.26840400E-14    2
-5.18786300E+03-3.27494900E+00 3.12527800E+00 9.77822000E-03 4.52144800E-06    3
-9.00946200E-09 3.19371800E-12-4.10850800E+03 1.12288500E+01                   4
CH3CHO            000000H   4O   1C   2     G    300.00   5000.00 1000.00      1
 5.86865000E+00 1.07942400E-02-3.64553000E-06 5.41291200E-10-2.89684400E-14    2
-2.26456900E+04-6.01294600E+00 2.50569500E+00 1.33699100E-02 4.67195300E-06    3
-1.12814000E-08 4.26356600E-12-2.12458900E+04 1.33508900E+01                   4
CH2CHO            000000H   3O   1C   2     G    300.00   5000.00 1000.00      1
 5.97567000E+00 8.13059100E-03-2.74362400E-06 4.07030400E-10-2.17601700E-14    2
 4.90321800E+02-5.04525100E+00 3.40906200E+00 1.07385700E-02 1.89149200E-06    3
-7.15858300E-09 2.86738500E-12 1.52147700E+03 9.55829000E+00                   4
CH3O2             000000H   3O   2C   1     G    300.00   5000.00 1385.00      1
 5.95787891E+00 7.90728626E-03-2.68246234E-06 4.13891337E-10-2.39007330E-14    2
-1.53574838E+03-4.71963886E+00 4.26146906E+00 1.00873599E-02-3.21506184E-06    3
 2.09409267E-10 4.18339103E-14-6.84394259E+02 5.16330320E+00                   4
CH3OH             000000H   4O   1C   1     G    300.00   5000.00 1000.00      1
 4.02906100E+00 9.37659300E-03-3.05025400E-06 4.35879300E-10-2.22472300E-14    2
-2.61579100E+04 2.37819600E+00 2.66011500E+00 7.34150800E-03 7.17005100E-06    3
-8.79319400E-09 2.39057000E-12-2.53534800E+04 1.12326300E+01                   4
CH2OH             000000H   3O   1C   1     G    250.00   4000.00 1000.00      1
 6.32752000E+00 3.60827100E-03-3.20154700E-07-1.93875000E-10 3.50970500E-14    2
-4.47450900E+03-8.32936600E+00 2.86262800E+00 1.00152700E-02-5.28543600E-07    3
-5.13854000E-09 2.24604100E-12-3.34967900E+03 1.03979400E+01                   4
CH3O2H            000000H   4O   2C   1     G    300.00   5000.00 1390.00      1
 8.43117091E+00 8.06817909E-03-2.77094921E-06 4.31332243E-10-2.50692146E-14    2
-1.96678771E+04-1.91170629E+01 3.23442817E+00 1.90129767E-02-1.13386287E-05    3
 3.40306653E-09-4.11830222E-13-1.77197926E+04 9.25623949E+00                   4
C2H6              000000H   6C   2          G    300.00   5000.00 1384.00      1
 6.10683385E+00 1.29236361E-02-4.42527196E-06 6.87391726E-10-3.98901732E-14    2
-1.37500014E+04-1.30081250E+01-2.52854344E-02 2.40764754E-02-1.11893472E-05    3
 2.08340901E-09-5.29868616E-14-1.12345534E+04 2.11648750E+01                   4
C3H3              000000H   3C   3          G    300.00   4000.00 1000.00      1
 8.83104700E+00 4.35719500E-03-4.10906700E-07-2.36872300E-10 4.37652000E-14    2
 3.84742000E+04-2.17791900E+01 4.75420000E+00 1.10802800E-02 2.79332300E-07    3
-5.47921200E-09 1.94962900E-12 3.98888300E+04 5.85454900E-01                   4
C3H4              000000H   4C   3          G    300.00   4000.00 1400.00      1
 9.77625600E+00 5.30213800E-03-3.70111800E-07-3.02638600E-10 5.08958100E-14    2
 1.95497200E+04-3.07706100E+01 2.53983100E+00 1.63343700E-02-1.76495000E-06    3
-4.64736500E-09 1.72913100E-12 2.25124300E+04 9.93570200E+00                   4
IC8H18            000000H  18C   8          G    300.00   5000.00 1396.00      1
 2.71373590E+01 3.79004890E-02-1.29437358E-05 2.00760372E-09-1.16400580E-13    2
-4.07958177E+04-1.23277495E+02-4.20868893E+00 1.11440581E-01-7.91346582E-05    3
 2.92406242E-08-4.43743191E-12-2.99446875E+04 4.49521701E+01                   4
C3H5              000000H   5C   3          G    300.00   5000.00 1397.00      1
 8.45883958E+00 1.12695483E-02-3.83792864E-06 5.94059119E-10-3.43918030E-14    2
 1.63576092E+04-2.25809450E+01-5.29131958E-01 3.34559100E-02-2.53401027E-05    3
 1.02865754E-08-1.73258340E-12 1.93834226E+04 2.53067131E+01                   4
C3H6              000000H   6C   3          G    300.00   5000.00 1388.00      1
 8.01595958E+00 1.37023634E-02-4.66249733E-06 7.21254402E-10-4.17370126E-14    2
-1.87821271E+03-2.00160668E+01 3.94615444E-01 2.89107662E-02-1.54886808E-05    3
 3.88814209E-09-3.37890352E-13 1.06688164E+03 2.19003736E+01                   4
NC3H7             000000H   7C   3          G    300.00   5000.00 1000.00      1
 7.97829100E+00 1.57611300E-02-5.17324300E-06 7.44389200E-10-3.82497800E-14    2
 7.57940200E+03-1.93561100E+01 1.92253700E+00 2.47892700E-02 1.81024900E-06    3
-1.78326600E-08 8.58299600E-12 9.71328100E+03 1.39927100E+01                   4
IC3H7             000000H   7C   3          G    300.00   5000.00 1000.00      1
 8.06336900E+00 1.57448800E-02-5.18239200E-06 7.47724500E-10-3.85442200E-14    2
 5.31387100E+03-2.19264700E+01 1.71330000E+00 2.54261600E-02 1.58080800E-06    3
-1.82128600E-08 8.82771000E-12 7.53580900E+03 1.29790100E+01                   4
IC4H7             000000H   7C   4          G    300.00   5000.00 1393.00      1
 1.16382753E+01 1.57681299E-02-5.38538858E-06 8.35172927E-10-4.84141083E-14    2
 1.05471642E+04-3.90259890E+01-7.20881697E-04 4.36495730E-02-3.16385877E-05    3
 1.23984983E-08-2.04378360E-12 1.45717785E+04 2.33234340E+01                   4
C4H8              000000H   8C   4          G    300.00   5000.00 1392.00      1
 1.13508668E+01 1.80617877E-02-6.16093029E-06 9.54652959E-10-5.53089641E-14    2
-5.97871038E+03-3.64369438E+01-8.31372089E-01 4.52580978E-02-2.93658559E-05    3
 1.00220436E-08-1.43191680E-12-1.57875035E+03 2.95084236E+01                   4
IC4H8             000000H   8C   4          G    300.00   5000.00 1388.00      1
 1.12258330E+01 1.81795798E-02-6.20348592E-06 9.61444458E-10-5.57088057E-14    2
-7.69983777E+03-3.73306704E+01 9.38433173E-01 3.90547287E-02-2.16437148E-05    3
 5.87267077E-09-6.14435479E-13-3.74817891E+03 1.91442985E+01                   4
PC4H9             000000H   9C   4          G    300.00   5000.00 1395.00      1
 1.21510082E+01 1.94310717E-02-6.61577950E-06 1.02375136E-09-5.92529707E-14    2
 3.17231942E+03-3.93425822E+01-4.37779725E-01 4.78972364E-02-3.14023159E-05    3
 1.09786472E-08-1.62010664E-12 7.68945248E+03 2.86852732E+01                   4
IC4H9             000000H   9C   4          G    300.00   5000.00 1393.00      1
 1.22753163E+01 1.95174006E-02-6.68773001E-06 1.03935193E-09-6.03374502E-14    2
 1.92395360E+03-4.15827559E+01-1.00837470E+00 5.01087003E-02-3.41941210E-05    3
 1.26025783E-08-1.97552053E-12 6.65557909E+03 3.00386204E+01                   4
TC4H9             000000H   9C   4          G    300.00   5000.00 1381.00      1
 9.94382113E+00 2.16693078E-02-7.47001405E-06 1.16578454E-09-6.78791834E-14    2
-1.89693616E+02-2.88692286E+01-2.73729203E+00 4.55390345E-02-2.26390939E-05    3
 4.56951052E-09-1.55321795E-13 4.87138887E+03 4.14144877E+01                   4
C5H10             000000H  10C   5          G    300.00   5000.00 1392.00      1
 1.45851539E+01 2.24072471E-02-7.63348025E-06 1.18188966E-09-6.84385139E-14    2
-1.00898205E+04-5.23683936E+01-1.06223481E+00 5.74218294E-02-3.74486890E-05    3
 1.27364989E-08-1.79609789E-12-4.46546666E+03 3.22739790E+01                   4
IC3H5CHO          000000H   6O   1C   4     G    300.00   5000.00 1396.00      1
 1.36203958E+01 1.37917192E-02-4.73370118E-06 7.36655226E-10-4.20097974E-14    2
-2.00025274E+04-4.73184531E+01 6.27183793E-01 4.66780254E-02-3.74430631E-05    3
 1.58330542E-08-2.73952155E-12-1.57203117E+04 2.16034294E+01                   4
CH3COCH2          000000H   5O   1C   3     G    300.00   5000.00 1391.00      1
 1.02303975E+01 1.16494161E-02-4.01005537E-06 6.25205246E-10-3.63784362E-14    2
-8.44380462E+03-2.79197220E+01 1.80339187E+00 3.01407085E-02-1.93505552E-05    3
 6.38199034E-09-8.66103180E-13-5.37233261E+03 1.78046408E+01                   4
C3KET21           000000H   6O   3C   3     G    300.00   5000.00 1371.00      1
 1.56377776E+01 1.44059342E-02-5.08808082E-06 8.07076119E-10-4.75295650E-14    2
-4.30657975E+04-5.13105869E+01 4.55686367E+00 3.57076837E-02-1.94712054E-05    3
 4.70695431E-09-3.69753807E-13-3.86710975E+04 9.97761694E+00                   4
NC3H7CHO          000000H   8O   1C   4     G    300.00   5000.00 1378.00      1
 1.35988068E+01 1.81652474E-02-6.17844458E-06 9.55980208E-10-5.53442958E-14    2
-3.15845348E+04-4.51790228E+01 1.87415959E+00 4.19240315E-02-2.35148779E-05    3
 6.26913673E-09-6.09443908E-13-2.71032194E+04 1.91568574E+01                   4
NC3H7CO           000000H   7O   1C   4     G    300.00   5000.00 1380.00      1
 1.30026331E+01 1.63104877E-02-5.57642899E-06 8.65670629E-10-5.02255667E-14    2
-1.25523385E+04-4.02608515E+01 2.67256826E+00 3.71198825E-02-2.06862859E-05    3
 5.48873888E-09-5.35864183E-13-8.58050888E+03 1.64848950E+01                   4
IC3H7CHO          000000H   8O   1C   4     G    300.00   5000.00 1391.00      1
 1.37501656E+01 1.83126722E-02-6.28572629E-06 9.78250756E-10-5.68538653E-14    2
-3.26936771E+04-4.77270548E+01-2.73021382E-01 4.89696307E-02-3.12770049E-05    3
 1.00052945E-08-1.27512074E-12-2.76054737E+04 2.83451139E+01                   4
TC3H6CHO          000000H   7O   1C   4     G    300.00   5000.00 1389.00      1
 1.31013047E+01 1.66391865E-02-5.68457623E-06 8.81808351E-10-5.11290161E-14    2
-1.30638647E+04-4.42705813E+01 1.87052762E+00 4.14869677E-02-2.66815701E-05    3
 9.01531610E-09-1.27870633E-12-8.97730744E+03 1.66174178E+01                   4
TC3H6O2CHO        000000H   7O   3C   4     G    300.00   5000.00 1386.00      1
 1.85534443E+01 1.68774389E-02-5.90752965E-06 9.31518085E-10-5.46345187E-14    2
-2.85447191E+04-6.82486667E+01 2.17883383E+00 5.41595832E-02-3.83435886E-05    3
 1.38308104E-08-2.04190147E-12-2.27394154E+04 2.00751264E+01                   4
TC3H6O2HCO        000000H   7O   3C   4     G    300.00   5000.00 1387.00      1
 2.06472678E+01 1.48526500E-02-5.25104875E-06 8.33619219E-10-4.91256069E-14    2
-2.88719869E+04-7.95951389E+01 2.03864428E+00 5.80421003E-02-4.32123528E-05    3
 1.58792094E-08-2.32209543E-12-2.24284673E+04 2.03680990E+01                   4
IC3H5CO           000000H   5O   1C   4     G    300.00   5000.00 1397.00      1
 1.30667437E+01 1.16704244E-02-3.99106523E-06 6.19498148E-10-3.59348249E-14    2
-3.36519344E+03-4.35803090E+01 1.85097069E+00 4.18855846E-02-3.62553731E-05    3
 1.65690659E-08-3.05850846E-12 1.70381441E+02 1.53014433E+01                   4
IC3H7CO           000000H   7O   1C   4     G    300.00   5000.00 1396.00      1
 1.28987340E+01 1.66809722E-02-5.67154574E-06 8.77024651E-10-5.07426140E-14    2
-1.35090137E+04-4.12607668E+01 4.33384289E-01 4.46235649E-02-2.91982909E-05    3
 9.72341221E-09-1.30412544E-12-9.07000444E+03 2.60898982E+01                   4
CH3COCH3          000000H   6O   1C   3     G    300.00   5000.00 1374.00      1
 9.91421984E+00 1.46030709E-02-5.06085765E-06 7.92682855E-10-4.62739645E-14    2
-3.11167423E+04-2.86113215E+01 1.30767163E+00 2.92021742E-02-1.19045617E-05    3
 6.52150087E-10 4.67751203E-13-2.75328269E+04 1.96395025E+01                   4
CH2CCH2OH         000000H   5O   1C   3     G    300.00   5000.00 1372.00      1
 9.70702027E+00 1.13972660E-02-3.77993962E-06 5.75209277E-10-3.29229125E-14    2
 9.13212884E+03-2.25012933E+01 2.88422544E+00 2.42428071E-02-1.14152268E-05    3
 1.71775334E-09 1.42177454E-13 1.17935615E+04 1.52102335E+01                   4
CH3COCH2O2        000000H   5O   3C   3     G    300.00   5000.00 1379.00      1
 1.27690342E+01 1.42554828E-02-4.92821461E-06 7.70448921E-10-4.49110534E-14    2
-2.34798669E+04-3.27155799E+01 5.95535468E+00 2.70255205E-02-1.37385031E-05    3
 3.53735851E-09-4.03922557E-13-2.06679464E+04 5.21436049E+00                   4
IC4H7O            000000H   7O   1C   4     G    300.00   5000.00 1386.00      1
 1.33457615E+01 1.61218588E-02-5.44376403E-06 8.38199374E-10-4.83608280E-14    2
 6.11443644E+02-4.36818838E+01 1.74700687E+00 4.07783436E-02-2.44750243E-05    3
 7.06502958E-09-7.51570589E-13 4.86979233E+03 1.94535999E+01                   4
IC4H6OH           000000H   7O   1C   4     G    300.00   5000.00 1390.00      1
 1.40310926E+01 1.55317541E-02-5.32754961E-06 8.28785902E-10-4.81545257E-14    2
-7.69378228E+03-4.76555306E+01 8.63371227E-01 4.68711282E-02-3.43580339E-05    3
 1.33031052E-08-2.13914975E-12-3.14948305E+03 2.29075523E+01                   4
C7H15             000000H  15C   7          G    300.00   5000.00 1382.00      1
 2.16368842E+01 3.23324804E-02-1.09273807E-05 1.68357060E-09-9.71774091E-14    2
-1.05873616E+04-8.52209653E+01-3.79155767E-02 7.56726570E-02-4.07473634E-05    3
 9.32678943E-09-4.92360745E-13-2.35605303E+03 3.37321506E+01                   4
C7H15O2           000000H  15O   2C   7     G    300.00   5000.00 1392.00      1
 2.52622017E+01 3.46652053E-02-1.18812593E-05 1.84687322E-09-1.07234165E-13    2
-3.05051074E+04-1.00675588E+02 1.51378168E+00 8.85572745E-02-5.92457147E-05    3
 2.11801862E-08-3.20741722E-12-2.19818400E+04 2.76255370E+01                   4
C7H14OOH2         000000H  15O   2C   7     G    300.00   5000.00 1389.00      1
 2.73843966E+01 3.17800796E-02-1.07557689E-05 1.65881427E-09-9.58200506E-14    2
-2.49404488E+04-1.09739277E+02 1.62083964E+00 8.83636215E-02-5.64527235E-05    3
 1.76325999E-08-2.10369342E-12-1.57072842E+04 2.97815441E+01                   4
C7H14OOH2         000000H  15O   4C   7     G    300.00   5000.00 1392.00      1
 3.27436761E+01 3.30060143E-02-1.14146253E-05 1.78556283E-09-1.04147126E-13    2
-4.58332974E+04-1.35817581E+02 3.09603698E+00 9.93182239E-02-6.69045928E-05    3
 2.24191270E-08-2.97843662E-12-3.52824732E+04 2.43873873E+01                   4
NC7KET24          000000H  14O   3C   7     G    300.00   5000.00 1389.00      1
 2.82068850E+01 3.20833500E-02-1.10699870E-05 1.72876170E-09-1.00709919E-13    2
-6.18824724E+04-1.13686529E+02 2.69842062E+00 9.01458551E-02-6.19413386E-05    3
 2.22789039E-08-3.34178948E-12-5.27915898E+04 2.39852490E+01                   4
AC8H17            000000H  17C   8          G    300.00   5000.00 1396.00      1
 2.67069782E+01 3.57660601E-02-1.22178704E-05 1.89536630E-09-1.09907843E-13    2
-1.57229692E+04-1.17001113E+02-3.41944741E+00 1.06803189E-01-7.65411563E-05    3
 2.85341682E-08-4.36478649E-12-5.33514196E+03 4.45471727E+01                   4
AC8H17O2          000000H  17O   2C   8     G    300.00   5000.00 1397.00      1
 2.99218384E+01 3.78213072E-02-1.29497041E-05 2.01179236E-09-1.16769717E-13    2
-3.47718755E+04-1.28312117E+02-4.17981776E-01 1.09033073E-01-7.73681490E-05    3
 2.87850500E-08-4.42721988E-12-2.42387571E+04 3.45612011E+01                   4
AC8H16OOH         000000H  17O   2C   8     G    300.00   5000.00 1393.00      1
 3.23398926E+01 3.45124806E-02-1.16469791E-05 1.79336590E-09-1.03494240E-13    2
-2.93410499E+04-1.39083072E+02-6.93031347E-01 1.10301494E-01-7.63976715E-05    3
 2.61675540E-08-3.49766299E-12-1.79009147E+04 3.85315171E+01                   4
IC8ETERAB         000000H  16O   1C   8     G    300.00   5000.00 1403.00      1
 2.76798014E+01 3.59323006E-02-1.23072657E-05 1.91269208E-09-1.11054254E-13    2
-4.05912134E+04-1.25295695E+02-7.80049041E+00 1.23580877E-01-9.58621529E-05    3
 3.83545262E-08-6.21761428E-12-2.88197649E+04 6.34400053E+01                   4
AC8H16OOH         000000H  17O   4C   8     G    300.00   5000.00 1396.00      1
 3.67865808E+01 3.66860516E-02-1.26621795E-05 1.97813925E-09-1.15276762E-13    2
-4.98167168E+04-1.59814026E+02 1.32679918E+00 1.19431729E-01-8.60181983E-05    3
 3.13764909E-08-4.61134469E-12-3.75654653E+04 3.05379851E+01                   4
IC8KETAB          000000H  16O   3C   8     G    300.00   5000.00 1399.00      1
 3.38088926E+01 3.44048922E-02-1.18434104E-05 1.84692100E-09-1.07495221E-13    2
-6.54736771E+04-1.47484577E+02-1.15294347E+00 1.19597412E-01-9.17731724E-05    3
 3.61323541E-08-5.76238463E-12-5.37517462E+04 3.89197707E+01                   4
