ELEMENTS
N  H  O  C  AR HE 
END
SPECIES
N2                C7H16             O2                CO2               H2O               CO                H2                OH                
H2O2              HO2               H                 O                 CH3O              CH2O              HCO               CH2               
CH3               CH4               C2H2              C2H3              C2H4              C2H5              HCCO              CH2CO             
CH3CO             CH3CHO            CH2CHO            CH3O2             CH3OH             CH2OH             CH3O2H            C2H6              
C3H3              C3H4              IC8H18            C3H5              C3H6              NC3H7             IC3H7             IC4H7             
C4H8              IC4H8             PC4H9             IC4H9             TC4H9             C5H10             IC3H5CHO          CH3COCH2          
C3KET21           NC3H7CHO          NC3H7CO           IC3H7CHO          TC3H6CHO          TC3H6O2CHO        TC3H6O2HCO        IC3H5CO           
IC3H7CO           CH3COCH3          CH2CCH2OH         CH3COCH2O2        IC4H7O            IC4H6OH           C7H15             C7H15O2           
C7H14OOH2         C7H14OOH2         NC7KET24          AC8H17            AC8H17O2          AC8H16OOH         IC8ETERAB         AC8H16OOH         
IC8KETAB          
END
REACTIONS
C7H16<=>H+C7H15                          1.300e+88  -21.010 139500.00
     REV / 2.263e+83  -20.310  40830.00 /
C7H16+H<=>C7H15+H2                       2.600e+06    2.400   4471.00
     REV / 1.807e+01    3.380   9318.00 /
C7H16+O<=>C7H15+OH                       9.540e+04    2.710   2106.00
     REV / 3.481e-01    3.670   5541.00 /
C7H16+OH<=>C7H15+H2O                     1.900e+06    2.000   -596.00
     REV / 3.624e+02    2.870  19140.00 /
C7H16+HO2<=>C7H15+H2O2                   4.000e+03    3.370  13720.00
     REV / 4.982e-01    3.660   2562.00 /
C7H16+O2<=>C7H15+HO2                     2.800e+13    0.000  50150.00
     REV / 1.000e+09    0.630    309.00 /
C7H15<=>PC4H9+C3H6                       3.150e+19   -1.790  31360.00
     REV / 1.000e+11    0.000   8200.00 /
C7H15O2<=>C7H15+O2                       1.357e+23   -2.360  37670.00
     REV / 2.340e+12    0.000      0.00 /
C7H15O2<=>C7H14OOH2                      2.500e+10    0.000  20450.00
C7H14OOH2<=>C7H14OOH2+O2                 1.389e+23   -2.380  37600.00
     REV / 7.540e+12    0.000      0.00 /
C7H14OOH2<=>NC7KET24+OH                  1.250e+10    0.000  17450.00
NC7KET24<=>NC3H7CHO+CH3COCH2+OH          5.000e+16    0.000  39000.00
     REV / 0.000e+00    0.000      0.00 /
C7H14OOH2<=>OH+CH3CHO+C5H10              1.548e+12    0.590  30090.00
     REV / 0.000e+00    0.000      0.00 /
IC8H18<=>TC4H9+IC4H9                     7.828e+29   -3.925  84150.00
     REV / 3.590e+14   -0.750      0.00 /
IC8H18+H<=>AC8H17+H2                     7.341e+05    2.768   8147.00
     REV / 5.100e+01    3.404  10480.00 /
IC8H18+OH<=>AC8H17+H2O                   7.500e+06    1.800   1431.00
IC8H18+HO2<=>AC8H17+H2O2                 2.000e+03    3.590  17160.00
IC8H18+O2<=>AC8H17+HO2                   6.300e+13    0.000  50760.00
     REV / 2.296e+10    0.288  -1592.00 /
IC8H18+O<=>AC8H17+OH                     8.550e+03    3.050   3123.00
     REV / 3.118e-01    3.666   4048.00 /
IC8H18<=>AC8H17+H                        5.748e+17   -0.360 101200.00
     REV / 1.000e+14    0.000      0.00 /
IC4H8+IC4H9<=>AC8H17                     6.090e+02    2.480   8520.00
     REV / 1.000e+14   -0.140  26780.00 /
AC8H17O2<=>AC8H17+O2                     3.465e+20   -1.653  35720.00
     REV / 4.520e+12    0.000      0.00 /
AC8H17O2<=>AC8H16OOH                     2.500e+10    0.000  20450.00
AC8H16OOH<=>IC8ETERAB+OH                 3.000e+11    0.000  14250.00
     REV / 0.000e+00    0.000      0.00 /
AC8H16OOH<=>AC8H16OOH+O2                 1.361e+23   -2.357  37280.00
     REV / 7.540e+12    0.000      0.00 /
AC8H16OOH<=>IC8KETAB+OH                  2.500e+10    0.000  21000.00
IC8ETERAB+OH<=>IC4H8+IC3H7CO+H2O         1.250e+12    0.000      0.00
     REV / 0.000e+00    0.000      0.00 /
IC8ETERAB+HO2<=>IC4H8+IC3H7CO+H2O2       2.500e+12    0.000  17700.00
     REV / 0.000e+00    0.000      0.00 /
IC8KETAB<=>IC3H7CHO+TC3H6CHO+OH          1.000e+16    0.000  39000.00
     REV / 0.000e+00    0.000      0.00 /
IC8H18+C7H15<=>C7H16+AC8H17              1.500e+11    0.000  14500.00
C5H10<=>C2H5+C3H5                        9.173e+20   -1.630  73990.00
     REV / 4.000e+12    0.000   -596.00 /
C5H10+O<=>PC4H9+HCO                      1.000e+11    0.000      0.00
C5H10+OH<=>PC4H9+CH2O                    1.000e+12    0.000      0.00
PC4H9+O2<=>C4H8+HO2                      1.600e+24   -3.900   7600.00
PC4H9<=>C2H5+C2H4                        7.497e+17   -1.410  29580.00
     REV / 3.300e+11    0.000   7200.00 /
PC4H9<=>C4H8+H                           1.159e+17   -1.170  38160.00
     REV / 1.000e+13    0.000   2900.00 /
C4H8+H<=>C2H4+C2H5                       1.600e+22   -2.390  11180.00
C4H8+H<=>C3H6+CH3                        3.200e+22   -2.390  11180.00
C4H8<=>C3H5+CH3                          5.000e+15    0.000  71000.00
     REV / 5.000e+12    0.000      0.00 /
C4H8<=>C2H3+C2H5                         1.000e+19   -1.000  96770.00
     REV / 9.000e+12    0.000      0.00 /
C4H8+OH<=>NC3H7+CH2O                     1.000e+12    0.000      0.00
     REV / 1.620e+12    0.000  13230.00 /
C4H8+O<=>C3H6+CH2O                       7.230e+05    2.340  -1050.00
     REV / 2.000e+05    2.340  80280.00 /
NC3H7CHO+O2<=>NC3H7CO+HO2                2.000e+13    0.500  42200.00
     REV / 1.000e+07    0.500   4000.00 /
NC3H7CHO+OH<=>NC3H7CO+H2O                2.690e+10    0.760   -340.00
     REV / 1.852e+10    0.750  31220.00 /
NC3H7CHO+HO2<=>NC3H7CO+H2O2              2.800e+12    0.000  13600.00
     REV / 1.000e+12    0.000  10000.00 /
NC3H7CO<=>NC3H7+CO                       5.325e+15   -0.860  13400.00
     REV / 1.500e+11    0.000   4800.00 /
TC4H9<=>H+IC4H8                          4.650e+46   -9.830  55080.00
     REV / 5.889e+44   -9.420  16980.00 /
TC4H9+O2<=>IC4H8+HO2                     7.000e+24   -3.900   6600.00
IC4H9+O2<=>IC4H8+HO2                     1.600e+24   -3.900   7600.00
IC4H9<=>C3H6+CH3                         1.640e+37   -7.400  38670.00
     REV / 1.592e+34   -7.110  18030.00 /
IC4H9<=>IC4H8+H                          4.980e+32   -6.230  40070.00
     REV / 1.606e+29   -5.240   6265.00 /
IC4H8+OH<=>IC4H7+H2O                     5.200e+06    2.000   -298.00
     REV / 4.563e+08    1.390  32470.00 /
IC4H8+HO2<=>IC4H7+H2O2                   1.928e+04    2.600  13910.00
     REV / 1.004e+07    1.660  15210.00 /
IC4H8<=>IC4H7+H                          3.070e+55  -11.490 114300.00
     REV / 3.300e+52  -11.100  24460.00 /
IC4H8+O2<=>IC4H7+HO2                     6.000e+12    0.000  39900.00
     REV / 2.209e+12   -0.280     30.00 /
TC3H6O2CHO<=>TC3H6CHO+O2                 2.787e+25   -4.070  28450.00
     REV / 1.990e+17   -2.100      0.00 /
TC3H6CHO+HO2<=>IC3H7CHO+O2               3.675e+12    0.000   1310.00
     REV / 1.236e+14   -0.240  43350.00 /
TC3H6O2CHO<=>TC3H6O2HCO                  1.000e+11    0.000  25750.00
     REV / 8.258e+11   -0.520  22800.00 /
TC3H6O2HCO<=>CH3COCH3+CO+OH              4.244e+18   -1.430   4800.00
TC3H6CHO<=>IC3H5CHO+H                    2.879e+16   -0.630  41280.00
     REV / 1.300e+13    0.000   1200.00 /
IC3H7CHO+OH<=>IC3H7CO+H2O                2.690e+10    0.760   -340.00
     REV / 1.164e+10    0.750  31200.00 /
IC3H7CHO+OH<=>TC3H6CHO+H2O               1.684e+12    0.000   -781.00
     REV / 1.194e+13   -0.090  29810.00 /
IC3H7CO<=>IC3H7+CO                       1.426e+13   -0.040  10950.00
     REV / 1.500e+11    0.000   4810.00 /
IC3H7CHO+HO2<=>IC3H7CO+H2O2              3.000e+12    0.000  11920.00
     REV / 7.707e+12   -0.330  11990.00 /
IC4H7+HO2<=>IC4H7O+OH                    7.000e+12    0.000  -1000.00
     REV / 2.182e+13   -0.170  12050.00 /
CH3O2+IC4H7<=>CH3O+IC4H7O                7.000e+12    0.000  -1000.00
     REV / 2.131e+15   -0.750  16810.00 /
IC4H7+O2<=>C3H4+CH2O+OH                  7.290e+29   -5.710  21450.00
IC4H7<=>C3H4+CH3                         1.230e+47   -9.740  74260.00
     REV / 3.017e+41   -8.700  26620.00 /
IC4H7+O2<=>IC3H5CHO+OH                   2.470e+13   -0.450  23020.00
     REV / 1.620e+14   -0.760  73390.00 /
IC4H7+O2<=>CH3COCH2+CH2O                 7.140e+15   -1.210  21050.00
     REV / 1.226e+15   -1.200  90190.00 /
IC4H7O<=>IC4H6OH                         1.391e+11    0.000  15600.00
     REV / 4.233e+11   -0.160  31670.00 /
IC4H7O+O2<=>IC3H5CHO+HO2                 3.000e+10    0.000   1649.00
     REV / 6.312e+10   -0.140  38980.00 /
IC4H7O<=>IC3H5CHO+H                      5.000e+13    0.000  29100.00
     REV / 3.071e+11    0.530  16470.00 /
IC4H6OH+HO2<=>CH2CCH2OH+CH2O+OH          1.446e+13    0.000      0.00
CH2CCH2OH+O2<=>CH2OH+CO+CH2O             4.335e+12    0.000      0.00
IC3H5CHO+OH<=>IC3H5CO+H2O                2.690e+10    0.760   -340.00
     REV / 4.400e+10    0.780  36080.00 /
IC3H5CHO+HO2<=>IC3H5CO+H2O2              1.000e+12    0.000  11920.00
     REV / 9.709e+12   -0.310  16880.00 /
IC3H5CO<=>C3H5+CO                        1.278e+20   -1.890  34460.00
     REV / 1.510e+11    0.000   4809.00 /
NC3H7+H<=>C2H5+CH3                       3.700e+24   -2.920  12500.00
NC3H7+OH<=>C3H6+H2O                      2.400e+13    0.000      0.00
NC3H7+O2<=>C3H6+HO2                      1.710e+42   -9.211  19790.00
NC3H7<=>CH3+C2H4                         2.284e+14   -0.550  28400.00
     REV / 4.100e+11    0.000   7204.00 /
NC3H7<=>H+C3H6                           2.667e+15   -0.640  36820.00
     REV / 1.000e+13    0.000   2500.00 /
IC3H7+O2<=>C3H6+HO2                      3.900e+48  -11.002  21250.00
IC3H7<=>H+C3H6                           8.569e+18   -1.570  40340.00
     REV / 1.300e+13    0.000   1560.00 /
IC3H7+H<=>C2H5+CH3                       2.000e+13    0.000      0.00
     REV / 4.822e+09    0.690  12090.00 /
IC3H7+OH<=>C3H6+H2O                      2.410e+13    0.000      0.00
     REV / 2.985e+12    0.570  83820.00 /
IC3H7+O<=>CH3COCH3+H                     4.818e+13    0.000      0.00
     REV / 1.293e+16   -0.190  79380.00 /
IC3H7+H<=>C3H6+H2                        3.200e+12    0.000      0.00
CH3COCH3<=>CH3CO+CH3                     1.219e+23   -1.990  83950.00
     REV / 1.000e+13    0.000      0.00 /
CH3COCH3+OH<=>CH3COCH2+H2O               1.054e+10    0.970   1586.00
     REV / 6.931e+09    0.970  23250.00 /
CH3COCH3+O2<=>CH3COCH2+HO2               1.200e+14    0.000  46000.00
     REV / 2.000e+12    0.000   2000.00 /
CH3COCH3+HO2<=>CH3COCH2+H2O2             1.700e+13    0.000  20460.00
     REV / 1.000e+11    0.000   8000.00 /
CH3COCH2<=>CH2CO+CH3                     1.000e+14    0.000  31000.00
     REV / 1.000e+11    0.000   6000.00 /
CH3COCH2O2<=>CH3COCH2+O2                 8.093e+15   -1.110  27450.00
     REV / 1.200e+11    0.000  -1100.00 /
CH2O+CH3COCH2O2<=>HCO+C3KET21            1.288e+11    0.000   9000.00
     REV / 2.512e+10    0.000  10100.00 /
HO2+CH3COCH2O2<=>C3KET21+O2              1.000e+12    0.000      0.00
C3KET21<=>CH2O+CH3CO+OH                  1.500e+16    0.000  42000.00
C3H6+O<=>C2H5+HCO                        3.500e+07    1.650   -972.75
C3H6+OH<=>C3H5+H2O                       3.100e+06    2.000   -298.28
C3H6+O<=>CH2CO+CH3+H                     1.200e+08    1.650    327.44
C3H6+H<=>C3H5+H2                         1.700e+05    2.500   2492.83
C3H6+H<=>C2H4+CH3                        1.600e+22   -2.390  11185.47
C3H5+H<=>C3H4+H2                         1.800e+13    0.000      0.00
C3H5+O2<=>C3H4+HO2                       4.990e+15   -1.400  22428.06
C3H5+CH3<=>C3H4+CH4                      3.000e+12   -0.320   -130.98
C2H2+CH3(+M)<=>C3H5(+M)                  6.000e+08    0.000      0.00

     LOW  /  2.000e+09    1.000      0.00 /
!     FCCHECK/     0.5     1e+30    0.5         0      0         0
     TROE/     0.5    1e+30         0        /
C3H5+OH<=>C3H4+H2O                       6.000e+12    0.000      0.00
C3H5+H(+M)<=>C3H6(+M)                    2.000e+14    0.000      0.00
CO2/2.00/ H2O/6.00/ CO/1.50/ H2/2.00/ CH4/2.00/ C2H6/3.00/ 
     LOW  /  1.330e+60  -12.000   5967.97 /
     TROE/    0.02     1097      1097      6860 /
C3H5+HO2<=>C3H6+O2                       2.660e+12    0.000      0.00
C3H5+HO2<=>OH+C2H3+CH2O                  3.000e+12    0.000      0.00
CH3+C2H3<=>C3H5+H                        1.500e+24   -2.830  18618.55
C3H4+O<=>C2H4+CO                         2.000e+07    1.800   1000.00
CH3+C2H2<=>C3H4+H                        2.560e+09    1.100  13643.88
C3H4+O<=>HCCO+CH3                        7.300e+12    0.000   2250.00
C3H4+OH<=>C3H3+H2O                       5.300e+06    2.000   2000.00
C3H4+H(+M)<=>C3H5(+M)                    4.000e+13    0.000      0.00

     LOW  /  3.000e+24   -2.000      0.00 /
!     FCCHECK/     0.2     1e+30    0.8         0      0         0
     TROE/     0.8    1e+30         0        /
C3H4+O2<=>CH3+HCO+CO                     4.000e+14    0.000  41826.00
C3H3+H(+M)<=>C3H4(+M)                    3.000e+13    0.000      0.00

     LOW  /  9.000e+15    1.000      0.00 /
!     FCCHECK/     0.5     1e+30    0.5         0      0         0
     TROE/     0.5    1e+30         0        /
C3H3+HO2<=>C3H4+O2                       2.500e+12    0.000      0.00
C3H3+O2<=>CH2CO+HCO                      3.000e+10    0.000   2868.07
C3H3+HCO<=>C3H4+CO                       2.500e+13    0.000      0.00
C3H3+HO2<=>OH+CO+C2H3                    8.000e+11    0.000      0.00
2CH3(+M)<=>C2H6(+M)                      9.214e+16   -1.170    635.80
CO2/2.00/ H2O/6.00/ CO/1.50/ H2/2.00/ CH4/2.00/ C2H6/3.00/ 
     LOW  /  1.135e+36   -5.246   1705.00 /
     TROE/   0.405     1120      69.6     1e+10 /
C2H5+H(+M)<=>C2H6(+M)                    5.210e+17   -0.990   1580.00
CO2/2.00/ H2O/6.00/ CO/1.50/ H2/2.00/ CH4/2.00/ C2H6/3.00/ 
     LOW  /  1.990e+41   -7.080   6685.00 /
     TROE/   0.842      125      2219      6882 /
C2H6+H<=>C2H5+H2                         1.150e+08    1.900   7530.00
     REV / 1.062e+04    2.582   9760.00 /
C2H6+O<=>C2H5+OH                         3.550e+06    2.400   5830.00
     REV / 1.702e+02    3.063   6648.00 /
C2H6+OH<=>C2H5+H2O                       1.480e+07    1.900    950.00
     REV / 1.450e+04    2.476  18070.00 /
C2H6+O2<=>C2H5+HO2                       6.030e+13    0.000  51870.00
     REV / 2.921e+10    0.334   -593.00 /
C2H6+CH3<=>C2H5+CH4                      1.510e-07    6.000   6047.00
     REV / 1.273e-08    6.236   9817.00 /
C2H6+HO2<=>C2H5+H2O2                     3.460e+01    3.610  16920.00
     REV / 1.849e+00    3.597   3151.00 /
C2H6+CH3O2<=>C2H5+CH3O2H                 1.940e+01    3.640  17100.00
     REV / 2.017e+01    3.182   1734.00 /
C2H6+CH3O<=>C2H5+CH3OH                   2.410e+11    0.000   7090.00
     REV / 4.779e+08    0.469   9547.00 /
C2H4+H(+M)<=>C2H5(+M)                    1.081e+12    0.454   1822.00
CO2/2.00/ H2O/6.00/ CO/1.50/ H2/2.00/ CH4/2.00/ C2H6/3.00/ 
     LOW  /  1.200e+42   -7.620   6970.00 /
     TROE/   0.975      210       984      4374 /
C2H5+C2H3<=>2C2H4                        6.859e+11    0.110  -4300.00
     REV / 4.820e+14    0.000  71530.00 /
CH3+C2H5<=>CH4+C2H4                      1.180e+04    2.450  -2921.00
     REV / 2.390e+06    2.400  66690.00 /
C2H5+H<=>2CH3                            9.690e+13    0.000    220.00
     REV / 2.029e+09    1.028  10510.00 /
C2H5+H<=>C2H4+H2                         2.000e+12    0.000      0.00
     REV / 4.440e+11    0.396  68070.00 /
C2H5+O<=>CH3CHO+H                        1.100e+14    0.000      0.00
     REV / 1.033e+17   -0.500  77420.00 /
C2H5+O2<=>C2H4+HO2                       7.561e+14   -1.010   4749.00
     REV / 8.802e+14   -0.962  18130.00 /
     DUPLICATE
C2H5+O2<=>C2H4+HO2                       4.000e-01    3.880  13620.00
     REV / 4.656e-01    3.928  27000.00 /
     DUPLICATE
C2H5+O2<=>CH3CHO+OH                      8.265e+02    2.410   5285.00
     REV / 2.247e+03    2.301  65970.00 /
C2H3+H(+M)<=>C2H4(+M)                    1.360e+14    0.173    660.00
CO2/2.00/ H2O/6.00/ CO/1.50/ H2/2.00/ CH4/2.00/ C2H6/3.00/ 
     LOW  /  1.400e+30   -3.860   3320.00 /
     TROE/   0.782    207.5      2663      6095 /
C2H4(+M)<=>C2H2+H2(+M)                   8.000e+12    0.440  88770.00
CO2/2.00/ H2O/6.00/ CO/1.50/ H2/2.00/ CH4/2.00/ C2H6/3.00/ 
     LOW  /  1.580e+51   -9.300  97800.00 /
     TROE/   0.735      180      1035      5417 /
C2H4+H<=>C2H3+H2                         5.070e+07    1.930  12950.00
     REV / 1.602e+04    2.436   5190.00 /
C2H4+O<=>CH3+HCO                         8.564e+06    1.880    183.00
     REV / 3.297e+02    2.602  26140.00 /
C2H4+O<=>CH2CHO+H                        4.986e+06    1.880    183.00
     REV / 1.541e+09    1.201  18780.00 /
C2H4+OH<=>C2H3+H2O                       1.800e+06    2.000   2500.00
     REV / 6.029e+03    2.400   9632.00 /
C2H4+CH3<=>C2H3+CH4                      6.620e+00    3.700   9500.00
     REV / 1.908e+00    3.760   3280.00 /
C2H4+O2<=>C2H3+HO2                       4.000e+13    0.000  58200.00
     REV / 2.000e+10    0.158  -4249.00 /
C2H4+CH3O<=>C2H3+CH3OH                   1.200e+11    0.000   6750.00
C2H2+H(+M)<=>C2H3(+M)                    5.600e+12    0.000   2400.00
CO2/2.00/ H2O/6.00/ CO/1.50/ H2/2.00/ CH4/2.00/ C2H6/3.00/ 
     LOW  /  3.800e+40   -7.270   7220.00 /
     TROE/   0.751     98.5      1302      4167 /
C2H3+O2<=>C2H2+HO2                       2.120e-06    6.000   9484.00
     REV / 1.087e-05    5.905  24030.00 /
C2H3+O2<=>CH2O+HCO                       8.500e+28   -5.312   6500.00
     REV / 3.994e+27   -4.883  93450.00 /
C2H3+O2<=>CH2CHO+O                       5.500e+14   -0.611   5260.00
     REV / 3.000e+18   -1.386  16300.00 /
CH3+C2H3<=>CH4+C2H2                      3.920e+11    0.000      0.00
     REV / 3.497e+14   -0.193  70780.00 /
C2H3+H<=>C2H2+H2                         9.640e+13    0.000      0.00
     REV / 9.427e+13    0.253  69240.00 /
C2H3+OH<=>C2H2+H2O                       5.000e+12    0.000      0.00
     REV / 5.184e+13    0.147  84130.00 /
C2H2+O2<=>HCCO+OH                        2.000e+08    1.500  30100.00
     REV / 2.039e+06    1.541  32270.00 /
C2H2+O<=>CH2+CO                          6.940e+06    2.000   1900.00
     REV / 4.050e+01    3.198  48360.00 /
C2H2+O<=>HCCO+H                          1.350e+07    2.000   1900.00
     REV / 4.755e+07    1.650  20800.00 /
C2H2+OH<=>CH2CO+H                        3.236e+13    0.000  12000.00
     REV / 3.061e+17   -0.802  35790.00 /
C2H2+OH<=>CH3+CO                         4.830e-04    4.000  -2000.00
     REV / 3.495e-06    4.638  52120.00 /
CH3CHO<=>CH3+HCO                         7.687e+20   -1.342  86950.00
     REV / 1.750e+13    0.000      0.00 /
CH3CHO+H<=>CH3CO+H2                      2.370e+13    0.000   3642.00
     REV / 1.639e+10    0.633  17600.00 /
CH3CHO+O<=>CH3CO+OH                      5.940e+12    0.000   1868.00
     REV / 2.133e+09    0.614  14410.00 /
CH3CHO+OH<=>CH3CO+H2O                    3.370e+12    0.000   -619.00
     REV / 2.472e+10    0.527  28230.00 /
CH3CHO+O2<=>CH3CO+HO2                    3.010e+13    0.000  39150.00
     REV / 1.092e+11    0.285  -1588.00 /
CH3CHO+CH3<=>CH3CO+CH4                   7.080e-04    4.580   1966.00
     REV / 4.468e-04    4.767  17460.00 /
CH3CHO+HO2<=>CH3CO+H2O2                  3.010e+12    0.000  11920.00
     REV / 1.205e+12   -0.062   9877.00 /
CH3CHO+OH<=>CH2CHO+H2O                   1.720e+05    2.400    815.00
     REV / 1.332e+05    2.511  24950.00 /
CH2CHO<=>CH2CO+H                         4.071e+15   -0.342  50600.00
     REV / 5.000e+13    0.000  12300.00 /
CH2CHO+O2=>CH2O+CO+OH                    8.950e+13   -0.600  10120.00
CH3CO(+M)<=>CH3+CO(+M)                   3.000e+12    0.000  16720.00

     LOW  /  1.200e+15    0.000  12518.00 /
!     FCCHECK/       0         0      0         0      1         0
     TROE/       1     1.00 10000000.00 10000000.00 /
CH3CO+H<=>CH2CO+H2                       2.000e+13    0.000      0.00
     REV / 1.037e+13    0.201  60560.00 /
CH3CO+O<=>CH2CO+OH                       2.000e+13    0.000      0.00
     REV / 5.381e+12    0.182  59140.00 /
CH3CO+CH3<=>CH2CO+CH4                    5.000e+13    0.000      0.00
     REV / 2.364e+16   -0.245  62100.00 /
CH2+CO(+M)<=>CH2CO(+M)                   8.100e+11    0.000      0.00
CO2/2.00/ H2O/6.00/ CO/1.50/ H2/2.00/ CH4/2.00/ C2H6/3.00/ 
     LOW  /  2.690e+33   -5.110   7095.00 /
     TROE/  0.5907      275      1226      5185 /
CH2CO+H<=>CH3+CO                         1.100e+13    0.000   3400.00
     REV / 2.400e+12    0.000  40200.00 /
CH2CO+H<=>HCCO+H2                        2.000e+14    0.000   8000.00
     REV / 1.434e+11    0.470   4520.00 /
CH2CO+O<=>CH2+CO2                        1.750e+12    0.000   1350.00
     REV / 2.854e+09    0.809  49440.00 /
CH2CO+O<=>HCCO+OH                        1.000e+13    0.000   8000.00
     REV / 3.723e+09    0.452   3108.00 /
CH2CO+OH<=>HCCO+H2O                      1.000e+13    0.000   2000.00
     REV / 7.604e+10    0.365  13410.00 /
CH2CO+OH<=>CH2OH+CO                      2.000e+12    0.000  -1010.00
     REV / 8.170e+09    0.494  24530.00 /
HCCO+OH=>H2+2CO                          1.000e+14    0.000      0.00
HCCO+O=>H+2CO                            8.000e+13    0.000      0.00
HCCO+O2=>OH+2CO                          4.200e+10    0.000    850.00
OH+CH3(+M)<=>CH3OH(+M)                   2.790e+18   -1.430   1330.00
CO2/2.00/ H2O/6.00/ CO/1.50/ H2/2.00/ CH4/2.00/ 
     LOW  /  4.000e+36   -5.920   3140.00 /
     TROE/   0.412      195      5900      6394 /
H+CH2OH(+M)<=>CH3OH(+M)                  1.055e+12    0.500     86.00
CO2/2.00/ H2O/6.00/ CO/1.50/ H2/2.00/ CH4/2.00/ 
     LOW  /  4.360e+31   -4.650   5080.00 /
     TROE/     0.6      100     90000     10000 /
H+CH3O(+M)<=>CH3OH(+M)                   2.430e+12    0.515     50.00
CO2/2.00/ H2O/6.00/ CO/1.50/ H2/2.00/ CH4/2.00/ 
     LOW  /  4.660e+41   -7.440  14080.00 /
     TROE/     0.7      100     90000     10000 /
CH3OH+H<=>CH2OH+H2                       3.200e+13    0.000   6095.00
CH3OH+H<=>CH3O+H2                        8.000e+12    0.000   6095.00
CH3OH+O<=>CH2OH+OH                       3.880e+05    2.500   3080.00
CH3OH+OH<=>CH3O+H2O                      1.000e+06    2.100    496.70
CH3OH+OH<=>CH2OH+H2O                     7.100e+06    1.800   -596.00
CH3OH+O2<=>CH2OH+HO2                     2.050e+13    0.000  44900.00
CH3OH+HCO<=>CH2OH+CH2O                   9.635e+03    2.900  13110.00
CH3OH+HO2<=>CH2OH+H2O2                   3.980e+13    0.000  19400.00
CH3OH+CH3<=>CH2OH+CH4                    3.190e+01    3.170   7172.00
CH3O+CH3OH<=>CH3OH+CH2OH                 3.000e+11    0.000   4060.00
CH2OH+M<=>CH2O+H+M                       1.000e+14    0.000  25100.00

CH2OH+H<=>CH2O+H2                        6.000e+12    0.000      0.00
CH2OH+H<=>CH3+OH                         9.635e+13    0.000      0.00
CH2OH+O<=>CH2O+OH                        4.200e+13    0.000      0.00
CH2OH+OH<=>CH2O+H2O                      2.400e+13    0.000      0.00
CH2OH+O2<=>CH2O+HO2                      2.410e+14    0.000   5017.00
     DUPLICATE
CH2OH+O2<=>CH2O+HO2                      1.510e+15   -1.000      0.00
     DUPLICATE
CH2OH+HO2<=>CH2O+H2O2                    1.200e+13    0.000      0.00
CH2OH+HCO<=>CH3OH+CO                     1.000e+13    0.000      0.00
CH2OH+HCO<=>2CH2O                        1.500e+13    0.000      0.00
2CH2OH<=>CH3OH+CH2O                      3.000e+12    0.000      0.00
CH2OH+CH3O<=>CH3OH+CH2O                  2.400e+13    0.000      0.00
CH3O+H<=>CH3+OH                          3.200e+13    0.000      0.00
CH3O+O<=>CH2O+OH                         6.000e+12    0.000      0.00
CH3O+OH<=>CH2O+H2O                       1.800e+13    0.000      0.00
CH3O+O2<=>CH2O+HO2                       9.033e+13    0.000  11980.00
     DUPLICATE
CH3O+O2<=>CH2O+HO2                       2.200e+10    0.000   1748.00
     DUPLICATE
CH3O+HO2<=>CH2O+H2O2                     3.000e+11    0.000      0.00
CH3O+CO<=>CH3+CO2                        1.600e+13    0.000  11800.00
CH3O+HCO<=>CH3OH+CO                      9.000e+13    0.000      0.00
2CH3O<=>CH3OH+CH2O                       6.000e+13    0.000      0.00
CH3O+M<=>CH2O+H+M                        8.300e+17   -1.200  15500.00

CH3+HO2<=>CH4+O2                         3.610e+12    0.000      0.00
     REV / 6.281e+14   -0.100  56230.00 /
CH3+H(+M)<=>CH4(+M)                      2.138e+15   -0.400      0.00
CO2/3.00/ H2O/5.00/ CO/2.00/ H2/2.00/ 
     LOW  /  3.310e+30   -4.000   2108.00 /
     TROE/       0    1e-15     1e-15        40 /
CH4+H<=>CH3+H2                           1.727e+04    3.000   8224.00
     REV / 6.610e+02    3.000   7744.00 /
CH4+OH<=>CH3+H2O                         1.930e+05    2.400   2106.00
     REV / 4.820e+02    2.900  14860.00 /
CH4+O<=>CH3+OH                           2.130e+06    2.210   6480.00
     REV / 3.557e+04    2.210   3920.00 /
CH4+CH2<=>2CH3                           2.460e+06    2.000   8270.00
CH4+HO2<=>CH3+H2O2                       3.420e+11    0.000  19290.00
     REV / 3.365e+11   -0.330   2502.00 /
CH4+CH3O<=>CH3+CH3OH                     1.570e+11    0.000   8842.00
     REV / 1.046e+09    0.000  50000.00 /
CH3+O2<=>CH2O+OH                         5.870e+11    0.000  14240.00
     REV / 1.175e+11    0.190  66060.00 /
CH3+HO2<=>CH3O+OH                        1.500e+13    0.000      0.00
     REV / 9.284e+13   -0.120  25240.00 /
CH3+O2<=>CH3O+O                          1.375e+13    0.000  30520.00
     REV / 8.506e+14   -0.450   2479.00 /
CH3+OH<=>CH2O+H2                         2.250e+13    0.000   4300.00
     REV / 6.756e+14    0.000  76030.00 /
CH3+O<=>CH2O+H                           8.000e+13    0.000      0.00
     REV / 1.055e+15    0.000  69630.00 /
CH3+M<=>CH2+H+M                          1.968e+16    0.000  92520.00

     REV / 2.107e+11    1.000 -19620.00 /
CH3+H<=>CH2+H2                           9.000e+13    0.000  15100.00
     REV / 1.818e+13    0.000  10400.00 /
CH3+OH<=>CH2+H2O                         3.000e+06    2.000   2500.00
     REV / 2.623e+06    2.000  12960.00 /
CH3+O2(+M)<=>CH3O2(+M)                   1.006e+08    1.630      0.00

     LOW  /  3.816e+31   -4.890   3432.00 /
     TROE/   0.045    880.1   2.5e+09 1.786e+09 /
CH3O2+CH3<=>2CH3O                        9.000e+12    0.000  -1200.00
     REV / 3.484e+12    0.180  28280.00 /
2CH3O2<=>O2+2CH3O                        1.400e+16   -1.610   1860.00
2CH3O2<=>CH2O+CH3OH+O2                   3.110e+14   -1.610  -1051.00
CH3O2+HO2<=>CH3O2H+O2                    2.500e+11    0.000  -1570.00
CH3O2H<=>CH3O+OH                         6.310e+14    0.000  42300.00
     REV / 1.166e+11    0.600  -1771.00 /
CH3O2+CH2O<=>CH3O2H+HCO                  1.990e+12    0.000  11670.00
     REV / 8.504e+12   -0.500   7009.00 /
CH3O2+H2O2<=>CH3O2H+HO2                  1.320e+04    2.500   9560.00
H+O2<=>O+OH                              1.970e+14    0.000  16540.00
O+H2<=>H+OH                              5.080e+04    2.670   6292.00
O+H2O<=>2OH                              2.970e+06    2.020  13400.00
OH+H2<=>H+H2O                            2.160e+08    1.510   3430.00
H2O2+OH<=>H2O+HO2                        1.000e+12    0.000      0.00
     DUPLICATE
H+OH+M<=>H2O+M                           4.500e+22   -2.000      0.00
CO2/3.80/ H2O/12.00/ CO/1.90/ H2/0.73/ 
H+O2(+M)<=>HO2(+M)                       1.480e+12    0.600      0.00
CO2/3.80/ H2O/14.00/ CO/1.90/ H2/1.30/ 
     LOW  /  3.500e+16   -0.410  -1116.00 /
!     FCCHECK/     0.5     1e-30    0.5     1e+30      0         0
     TROE/     0.5    1e-30     1e+30        /
HO2+O<=>OH+O2                            3.250e+13    0.000      0.00
     REV / 7.857e+14   -0.330  55390.00 /
HO2+H<=>2OH                              7.080e+13    0.000    300.00
HO2+H<=>H2+O2                            1.660e+13    0.000    820.00
2HO2<=>H2O2+O2                           4.200e+14    0.000  11980.00
     DUPLICATE
H2O2(+M)<=>2OH(+M)                       2.950e+14    0.000  48400.00
CO2/3.80/ H2O/12.00/ CO/1.90/ H2/2.50/ 
     LOW  /  1.270e+17    0.000  45500.00 /
!     FCCHECK/     0.5     1e-30    0.5     1e+30      0         0
     TROE/     0.5    1e-30     1e+30        /
H2O2+H<=>H2O+OH                          2.410e+13    0.000   3970.00
O+H+M<=>OH+M                             4.720e+18   -1.000      0.00
CO2/3.80/ H2O/12.00/ CO/1.90/ H2/2.50/ 
2O+M<=>O2+M                              6.170e+15   -0.500      0.00
CO2/3.80/ H2O/12.00/ CO/1.90/ H2/2.50/ 
H2+M<=>2H+M                              4.570e+19   -1.400 104400.00
CO2/3.80/ H2O/12.00/ CO/1.90/ H2/2.50/ 
2HO2<=>H2O2+O2                           1.300e+11    0.000  -1629.00
     DUPLICATE
H2O2+OH<=>H2O+HO2                        5.800e+14    0.000   9560.00
     DUPLICATE
H2O2+O<=>OH+HO2                          9.550e+06    2.000   3970.00
H2O2+H<=>H2+HO2                          6.030e+13    0.000   7950.00
HO2+OH<=>H2O+O2                          1.930e+20   -2.490    294.00
     DUPLICATE
HO2+OH<=>H2O+O2                          1.210e+09    1.240   -658.00
     DUPLICATE
CO+O(+M)<=>CO2(+M)                       1.800e+10    0.000   2384.00
CO2/3.80/ H2O/12.00/ CO/1.90/ H2/2.50/ 
     LOW  /  1.350e+24   -2.788   4191.00 /
!     FCCHECK/       0         0      0         0      1         0
     TROE/       1     1.00 10000000.00 10000000.00 /
CO+OH<=>CO2+H                            2.230e+05    1.900  -1160.00
CO+O2<=>CO2+O                            2.530e+12    0.000  47700.00
CO+HO2<=>CO2+OH                          3.010e+13    0.000  23000.00
HCO+M<=>H+CO+M                           4.750e+11    0.700  14900.00
CO2/3.80/ H2O/6.00/ CO/1.90/ H2/2.50/ 