THERMO ALL
   200.000  1000.000  5000.000
N2                121286N   2               G     300.0    5000.0  1000.0      1
      2.92664E0    1.487977E-3   -5.684761E-7   1.009704E-10  -6.753351E-15    2
    -9.227977E2     5.980528E0     3.298677E0     1.40824E-3   -3.963222E-6    3
    5.641515E-9  -2.444855E-12      -1.0209E3     3.950372E0                   4
H                 -THERMH   1               G     300.0    5000.0  1000.0      1
   2.50104422E0          0.0E0          0.0E0          0.0E0          0.0E0    2
   2.54747466E4 -4.65341317E-1   2.50104422E0          0.0E0          0.0E0    3
          0.0E0          0.0E0   2.54747466E4 -4.65341317E-1                   4
H2                121286H   2               G     300.0    5000.0  1000.0      1
     2.991423E0    7.000644E-4   -5.633829E-8  -9.231578E-12   1.582752E-15    2
     -8.35034E2     -1.35511E0     3.298124E0    8.249442E-4   -8.143015E-7    3
  -9.475434E-11   4.134872E-13    -1.012521E3    -3.294094E0                   4
O                 120186O   1               G     300.0    5000.0  1000.0      1
      2.54206E0   -2.755062E-5   -3.102803E-9   4.551067E-12  -4.368052E-16    2
      2.92308E4     4.920308E0     2.946429E0   -1.638166E-3    2.421032E-6    3
   -1.602843E-9   3.890696E-13     2.914764E4     2.963995E0                   4
O2                121386O   2               G     300.0    5000.0  1000.0      1
     3.697578E0    6.135197E-4   -1.258842E-7   1.775281E-11  -1.136435E-15    2
     -1.23393E3     3.189166E0     3.212936E0    1.127486E-3    -5.75615E-7    3
    1.313877E-9  -8.768554E-13    -1.005249E3     6.034738E0                   4
OH                --2004H   1O   1          G     300.0    5000.0  1373.0      1
   2.89080142E0  1.03580697E-3 -2.73888804E-7 3.14233602E-11-1.28582885E-15    2
   3.68169875E3   5.55206679E0   3.51661128E0 -2.17634829E-4  6.28785743E-7    3
-2.42056538E-10 2.72367648E-14   3.44025283E3   2.11149893E0                   4
H2O               -20387H   2O   1          G     300.0    5000.0  1000.0      1
     2.672146E0    3.056293E-3    -8.73026E-7   1.200996E-10  -6.391618E-15    2
    -2.989921E4     6.862817E0     3.386842E0    3.474982E-3   -6.354696E-6    3
    6.968581E-9  -2.506588E-12    -3.020811E4     2.590233E0                   4
CO                121286O   1C   1          G     300.0    5000.0  1000.0      1
     3.025078E0    1.442689E-3   -5.630828E-7   1.018581E-10  -6.910952E-15    2
    -1.426835E4     6.108218E0     3.262452E0    1.511941E-3   -3.881755E-6    3
    5.581944E-9  -2.474951E-12    -1.431054E4     4.848897E0                   4
HCO               121286H   1O   1C   1     G     300.0    5000.0  1000.0      1
     3.557271E0    3.345573E-3   -1.335006E-6   2.470573E-10  -1.713851E-14    2
     3.916324E3     5.552299E0      2.89833E0    6.199147E-3   -9.623084E-6    3
    1.089825E-8  -4.574885E-12     4.159922E3     8.983614E0                   4
CO2               121286O   2C   1          G     300.0    5000.0  1000.0      1
     4.453623E0    3.140169E-3   -1.278411E-6   2.393997E-10  -1.669033E-14    2
    -4.896696E4   -9.553959E-1     2.275725E0    9.922072E-3   -1.040911E-5    3
    6.866687E-9   -2.11728E-12    -4.837314E4     1.018849E1                   4
CH3               121286H   3C   1          G     300.0    5000.0  1000.0      1
     2.844052E0    6.137974E-3   -2.230345E-6   3.785161E-10  -2.452159E-14    2
     1.643781E4     5.452697E0     2.430443E0     1.11241E-2    -1.68022E-5    3
    1.621829E-8  -5.864953E-12     1.642378E4     6.789794E0                   4
HO2               --2004H   1O   2          G     300.0    5000.0  1426.0      1
   4.73847074E0  1.60455274E-3 -5.79128791E-7 9.32005029E-11-5.54436074E-15    2
    -2.942962E2 -5.34138593E-1    3.3258373E0  2.75201316E-3   1.1747616E-6    3
 -2.08439503E-9 6.04923316E-13   3.89351744E2   7.77951112E0                   4
H2O2              120186H   2O   2          G     300.0    5000.0  1000.0      1
     4.573167E0    4.336136E-3   -1.474689E-6   2.348904E-10  -1.431654E-14    2
    -1.800696E4     5.01137E-1     3.388754E0    6.569226E-3   -1.485013E-7    3
   -4.625806E-9   2.471515E-12    -1.766315E4     6.785363E0                   4
CH2O              121286H   2O   1C   1     G     300.0    5000.0  1000.0      1
     2.995606E0    6.681321E-3   -2.628955E-6   4.737153E-10  -3.212517E-14    2
    -1.532037E4     6.912572E0     1.652731E0    1.263144E-2   -1.888168E-5    3
    2.050031E-8  -8.413237E-12     -1.48654E4     1.378482E1                   4
CH3O              121686H   3O   1C   1     G     300.0    3000.0  1000.0      1
       3.7708E0    7.871497E-3   -2.656384E-6   3.944431E-10  -2.112616E-14    2
     1.278325E2     2.929575E0     2.106204E0    7.216595E-3    5.338472E-6    3
   -7.377636E-9   2.075611E-12     9.786011E2     1.315218E1                   4
C2H4              121286H   4C   2          G     300.0    5000.0  1000.0      1
     3.528419E0    1.148518E-2   -4.418385E-6   7.844601E-10  -5.266848E-14    2
     4.428289E3     2.230389E0    -8.61488E-1    2.796163E-2   -3.388677E-5    3
    2.785152E-8  -9.737879E-12     5.573046E3     2.421149E1                   4
C2H5              -12387H   5C   2          G     300.0    5000.0  1000.0      1
      7.19048E0    6.484077E-3   -6.428065E-7  -2.347879E-10   3.880877E-14    2
     1.067455E4    -1.478089E1     2.690702E0    8.719133E-3    4.419839E-6    3
   9.338703E-10  -3.927773E-12      1.28704E4      1.21382E1                   4
CH2               120186H   2C   1          G     250.0    4000.0  1000.0      1
     3.636408E0    1.933057E-3   -1.687016E-7  -1.009899E-10   1.808256E-14    2
     4.534134E4     2.156561E0     3.762237E0    1.159819E-3    2.489585E-7    3
   8.800836E-10  -7.332435E-13     4.536791E4     1.712578E0                   4
C2H2              121386H   2C   2          G     300.0    5000.0  1000.0      1
      4.43677E0    5.376039E-3   -1.912817E-6   3.286379E-10   -2.15671E-14    2
     2.566766E4    -2.800338E0     2.013562E0    1.519045E-2   -1.616319E-5    3
    9.078992E-9  -1.912746E-12     2.612444E4     8.805378E0                   4
C2H3              -12787H   3C   2          G     300.0    5000.0  1000.0      1
     5.933468E0    4.017746E-3    -3.96674E-7  -1.441267E-10   2.378644E-14    2
     3.185435E4    -8.530313E0     2.459276E0    7.371476E-3    2.109873E-6    3
   -1.321642E-9  -1.184784E-12     3.335225E4      1.15562E1                   4
CH2CO             121686H   2O   1C   2     G     300.0    5000.0  1000.0      1
     6.038817E0     5.80484E-3   -1.920954E-6   2.794485E-10  -1.458868E-14    2
    -8.583402E3    -7.657581E0     2.974971E0    1.211871E-2   -2.345046E-6    3
   -6.466685E-9   3.905649E-12    -7.632637E3     8.673553E0                   4
HCCO              -32387H   1O   1C   2     G     300.0    4000.0  1000.0      1
     6.758073E0      2.0004E-3   -2.027607E-7  -1.041132E-10   1.965165E-14    2
     1.901513E4    -9.071262E0     5.047965E0    4.453478E-3    2.268283E-7    3
   -1.482095E-9   2.250742E-13     1.965892E4    4.818439E-1                   4
CH3CO             120186H   3O   1C   2     G     300.0    5000.0  1000.0      1
     5.612279E0    8.449886E-3   -2.854147E-6   4.238376E-10  -2.268404E-14    2
    -5.187863E3    -3.274949E0     3.125278E0     9.77822E-3    4.521448E-6    3
   -9.009462E-9   3.193718E-12    -4.108508E3     1.122885E1                   4
CH3CHO            120186H   4O   1C   2     G     300.0    5000.0  1000.0      1
      5.86865E0    1.079424E-2    -3.64553E-6   5.412912E-10  -2.896844E-14    2
    -2.264569E4    -6.012946E0     2.505695E0    1.336991E-2    4.671953E-6    3
    -1.12814E-8   4.263566E-12    -2.124589E4     1.335089E1                   4
C3H4              101993H   4C   3          G     300.0    4000.0  1400.0      1
     9.776256E0    5.302138E-3   -3.701118E-7  -3.026386E-10   5.089581E-14    2
     1.954972E4    -3.077061E1     2.539831E0    1.633437E-2    -1.76495E-6    3
   -4.647365E-9   1.729131E-12     2.251243E4     9.935702E0                   4
C3H6              -THERMH   6C   3          G     300.0    5000.0  1388.0      1
   8.01595958E0  1.37023634E-2 -4.66249733E-6 7.21254402E-10-4.17370126E-14    2
  -1.87821271E3  -2.00160668E1  3.94615444E-1  2.89107662E-2 -1.54886808E-5    3
  3.88814209E-9-3.37890352E-13   1.06688164E3   2.19003736E1                   4
NC3H7             120186H   7C   3          G     300.0    5000.0  1000.0      1
     7.978291E0    1.576113E-2   -5.173243E-6   7.443892E-10  -3.824978E-14    2
     7.579402E3    -1.935611E1     1.922537E0    2.478927E-2    1.810249E-6    3
   -1.783266E-8   8.582996E-12     9.713281E3     1.399271E1                   4
C4H8              -THERMH   8C   4          G     300.0    5000.0  1392.0      1
   1.13508668E1  1.80617877E-2 -6.16093029E-6 9.54652959E-10-5.53089641E-14    2
  -5.97871038E3  -3.64369438E1 -8.31372089E-1  4.52580978E-2 -2.93658559E-5    3
  1.00220436E-8 -1.4319168E-12  -1.57875035E3   2.95084236E1                   4
PC4H9             -THERMH   9C   4          G     300.0    5000.0  1395.0      1
   1.21510082E1  1.94310717E-2  -6.6157795E-6  1.02375136E-9-5.92529707E-14    2
   3.17231942E3  -3.93425822E1 -4.37779725E-1  4.78972364E-2 -3.14023159E-5    3
  1.09786472E-8-1.62010664E-12   7.68945248E3   2.86852732E1                   4
CH3COCH2          -THERMH   5O   1C   3     G     300.0    5000.0  1391.0      1
   1.02303975E1  1.16494161E-2 -4.01005537E-6 6.25205246E-10-3.63784362E-14    2
  -8.44380462E3   -2.7919722E1   1.80339187E0  3.01407085E-2 -1.93505552E-5    3
  6.38199034E-9 -8.6610318E-13  -5.37233261E3   1.78046408E1                   4
C2H5O             -THERMH   5O   1C   2     G     300.0    5000.0  1389.0      1
   7.87339772E0  1.13072907E-2 -3.84421421E-6 5.94414105E-10-3.43894538E-14    2
  -6.07274953E3   -1.7341679E1  4.94420708E-1  2.71774434E-2  -1.6590901E-5    3
    5.152042E-9-6.48496915E-13  -3.35252925E3   2.28079378E1                   4
CH3O2             -THERMH   3O   2C   1     G     300.0    5000.0  1385.0      1
   5.95787891E0  7.90728626E-3 -2.68246234E-6 4.13891337E-10 -2.3900733E-14    2
  -1.53574838E3  -4.71963886E0   4.26146906E0  1.00873599E-2 -3.21506184E-6    3
 2.09409267E-10 4.18339103E-14  -6.84394259E2    5.1633032E0                   4
CH3COCH2O2        -----5H   5O   3C   3     G     300.0    5000.0  1379.0      1
   1.27690342E1  1.42554828E-2 -4.92821461E-6 7.70448921E-10-4.49110534E-14    2
  -2.34798669E4  -3.27155799E1   5.95535468E0  2.70255205E-2 -1.37385031E-5    3
  3.53735851E-9-4.03922557E-13  -2.06679464E4   5.21436049E0                   4
C3H5              -THERMH   5C   3          G     300.0    5000.0  1397.0      1
   8.45883958E0  1.12695483E-2 -3.83792864E-6 5.94059119E-10 -3.4391803E-14    2
   1.63576092E4   -2.2580945E1 -5.29131958E-1    3.345591E-2 -2.53401027E-5    3
  1.02865754E-8 -1.7325834E-12   1.93834226E4   2.53067131E1                   4
C3H3              -82489H   3C   3          G     300.0    4000.0  1000.0      1
     8.831047E0    4.357195E-3   -4.109067E-7  -2.368723E-10    4.37652E-14    2
      3.84742E4    -2.177919E1       4.7542E0    1.108028E-2    2.793323E-7    3
   -5.479212E-9   1.949629E-12     3.988883E4    5.854549E-1                   4
C3KET21           -THERMH   6O   3C   3     G     300.0    5000.0  1371.0      1
   1.56377776E1  1.44059342E-2 -5.08808082E-6 8.07076119E-10 -4.7529565E-14    2
  -4.30657975E4  -5.13105869E1   4.55686367E0  3.57076837E-2 -1.94712054E-5    3
  4.70695431E-9-3.69753807E-13  -3.86710975E4   9.97761694E0                   4
C5H10             -THERMH  10C   5          G     300.0    5000.0  1392.0      1
   1.45851539E1  2.24072471E-2 -7.63348025E-6  1.18188966E-9-6.84385139E-14    2
  -1.00898205E4  -5.23683936E1  -1.06223481E0  5.74218294E-2  -3.7448689E-5    3
  1.27364989E-8-1.79609789E-12  -4.46546666E3    3.2273979E1                   4
NC3H7CHO          -THERMH   8O   1C   4     G     300.0    5000.0  1378.0      1
   1.35988068E1  1.81652474E-2 -6.17844458E-6 9.55980208E-10-5.53442958E-14    2
  -3.15845348E4  -4.51790228E1   1.87415959E0  4.19240315E-2 -2.35148779E-5    3
  6.26913673E-9-6.09443908E-13  -2.71032194E4   1.91568574E1                   4
NC3H7CO           -THERMH   7O   1C   4     G     300.0    5000.0  1380.0      1
   1.30026331E1  1.63104877E-2 -5.57642899E-6 8.65670629E-10-5.02255667E-14    2
  -1.25523385E4  -4.02608515E1   2.67256826E0  3.71198825E-2 -2.06862859E-5    3
  5.48873888E-9-5.35864183E-13  -8.58050888E3    1.6484895E1                   4
HOCHO             -THERMH   2O   2C   1     G     300.0    5000.0  1376.0      1
   6.68733013E0  5.14289368E-3 -1.82238513E-6 2.89719163E-10-1.70892199E-14    2
    -4.839954E4  -1.13104798E1   1.43548185E0  1.63363016E-2 -1.06257421E-5    3
  3.32132977E-9-4.02176103E-13  -4.64616504E4   1.72885798E1                   4
C7H16                   H  16C   7          G     300.0    5000.0  1391.0      1
   2.22148969E1   3.4767575E-2 -1.18407129E-5  1.83298478E-9-1.06130266E-13    2
  -3.42760081E4  -9.23040196E1  -1.26836187E0   8.5435582E-2 -5.25346786E-5    3
  1.62945721E-8-2.02394925E-12  -2.56586565E4   3.53732912E1                   4
C7H15-2                 H  15C   7          G     300.0    5000.0  1382.0      1
   2.16368842E1  3.23324804E-2 -1.09273807E-5   1.6835706E-9-9.71774091E-14    2
  -1.05873616E4  -8.52209653E1 -3.79155767E-2   7.5672657E-2 -4.07473634E-5    3
  9.32678943E-9-4.92360745E-13  -2.35605303E3   3.37321506E1                   4
C7H15O2-2         -THERMH  15O   2C   7     G     300.0    5000.0  1392.0      1
   2.52622017E1  3.46652053E-2 -1.18812593E-5  1.84687322E-9-1.07234165E-13    2
  -3.05051074E4  -1.00675588E2   1.51378168E0  8.85572745E-2 -5.92457147E-5    3
  2.11801862E-8-3.20741722E-12    -2.198184E4    2.7625537E1                   4
C7H14OOH2-4       8-THRMH  15O   2C   7     G     300.0    5000.0  1389.0      1
   2.73843966E1  3.17800796E-2 -1.07557689E-5  1.65881427E-9-9.58200506E-14    2
  -2.49404488E4  -1.09739277E2   1.62083964E0  8.83636215E-2 -5.64527235E-5    3
  1.76325999E-8-2.10369342E-12  -1.57072842E4   2.97815441E1                   4
C7H14OOH2-4O2     -98-TMH  15O   4C   7     G     300.0    5000.0  1392.0      1
   3.27436761E1  3.30060143E-2 -1.14146253E-5  1.78556283E-9-1.04147126E-13    2
  -4.58332974E4  -1.35817581E2   3.09603698E0  9.93182239E-2 -6.69045928E-5    3
   2.2419127E-8-2.97843662E-12  -3.52824732E4   2.43873873E1                   4
NC7KET24          -THERMH  14O   3C   7     G     300.0    5000.0  1389.0      1
    2.8206885E1    3.208335E-2  -1.1069987E-5   1.7287617E-9-1.00709919E-13    2
  -6.18824724E4  -1.13686529E2   2.69842062E0  9.01458551E-2 -6.19413386E-5    3
  2.22789039E-8-3.34178948E-12  -5.27915898E4    2.3985249E1                   4
IC3H7             120186H   7C   3          G     300.0    5000.0  1000.0      1
     8.063369E0    1.574488E-2   -5.182392E-6   7.477245E-10  -3.854422E-14    2
     5.313871E3    -2.192647E1       1.7133E0    2.542616E-2    1.580808E-6    3
   -1.821286E-8    8.82771E-12     7.535809E3     1.297901E1                   4
C3H2              102193H   2C   3          G     150.0    4000.0  1000.0      1
     7.670981E0    2.748749E-3   -4.370943E-7  -6.455599E-11   1.663887E-14    2
     6.259722E4     -1.23689E1     3.166714E0    2.482572E-2   -4.591637E-5    3
    4.268019E-8  -1.482152E-11     6.350421E4     8.869446E0                   4
CH3OH             121686H   4O   1C   1     G     300.0    5000.0  1000.0      1
     4.029061E0    9.376593E-3   -3.050254E-6   4.358793E-10  -2.224723E-14    2
    -2.615791E4     2.378196E0     2.660115E0    7.341508E-3    7.170051E-6    3
   -8.793194E-9    2.39057E-12    -2.535348E4     1.123263E1                   4
HOCH2O            -THERMH   3O   2C   1     G     300.0    5000.0  1452.0      1
   6.39521515E0  7.43673043E-3 -2.50422354E-6 3.84879712E-10-2.21778689E-14    2
  -2.25557758E4  -6.63865583E0   4.11183145E0  7.53850697E-3   3.7733737E-6    3
 -5.38746005E-9 1.45615887E-12  -2.12471918E4   7.46807254E0                   4
C2H               -81193H   1C   2          G     300.0    4000.0  1000.0      1
     3.986367E0    3.143123E-3   -1.267243E-6   2.924363E-10   -2.71632E-14    2
     6.655884E4     1.191063E0     2.737704E0    8.048446E-3    -9.24431E-6    3
    6.525259E-9   -1.93958E-12     6.683813E4      7.30022E0                   4
C2H3CHO           -THERMH   4O   1C   3     G     300.0    5000.0  1393.0      1
   1.04184959E1  9.48963321E-3 -3.29310529E-6 5.16279203E-10-3.01587291E-14    2
  -1.49630281E4  -3.07235061E1  2.92355162E-1  3.54321417E-2 -2.94936324E-5    3
  1.28100124E-8-2.26144108E-12  -1.16521584E4    2.2887828E1                   4
C3H5O             -THERMH   5O   1C   3     G     300.0    5000.0  1380.0      1
   1.02551752E1   1.1498372E-2 -3.84645659E-6 5.88910346E-10-3.38557923E-14    2
    6.2656081E3  -2.77655042E1   1.19822582E0  3.05579837E-2 -1.80630276E-5    3
  4.86150033E-9-4.19854562E-13   9.58217784E3   2.15566221E1                   4
IC8H18            -THERMH  18C   8          G     300.0    5000.0  1396.0      1
    2.7137359E1   3.7900489E-2 -1.29437358E-5  2.00760372E-9 -1.1640058E-13    2
  -4.07958177E4  -1.23277495E2  -4.20868893E0  1.11440581E-1 -7.91346582E-5    3
  2.92406242E-8-4.43743191E-12  -2.99446875E4   4.49521701E1                   4
AC8H17            -THERMH  17C   8          G     300.0    5000.0  1396.0      1
   2.67069782E1  3.57660601E-2 -1.22178704E-5   1.8953663E-9-1.09907843E-13    2
  -1.57229692E4  -1.17001113E2  -3.41944741E0  1.06803189E-1 -7.65411563E-5    3
  2.85341682E-8-4.36478649E-12  -5.33514196E3   4.45471727E1                   4
AC8H17O2          -THERMH  17O   2C   8     G     300.0    5000.0  1397.0      1
   2.99218384E1  3.78213072E-2 -1.29497041E-5  2.01179236E-9-1.16769717E-13    2
  -3.47718755E4  -1.28312117E2 -4.17981776E-1  1.09033073E-1  -7.7368149E-5    3
    2.878505E-8-4.42721988E-12  -2.42387571E4   3.45612011E1                   4
AC8H16OOH-B       8-THRMH  17O   2C   8     G     300.0    5000.0  1393.0      1
   3.23398926E1  3.45124806E-2 -1.16469791E-5   1.7933659E-9 -1.0349424E-13    2
  -2.93410499E4  -1.39083072E2 -6.93031347E-1  1.10301494E-1 -7.63976715E-5    3
   2.6167554E-8-3.49766299E-12  -1.79009147E4   3.85315171E1                   4
IC8ETERAB         -THERMH  16O   1C   8     G     300.0    5000.0  1403.0      1
   2.76798014E1  3.59323006E-2 -1.23072657E-5  1.91269208E-9-1.11054254E-13    2
  -4.05912134E4  -1.25295695E2  -7.80049041E0  1.23580877E-1 -9.58621529E-5    3
  3.83545262E-8-6.21761428E-12  -2.88197649E4   6.34400053E1                   4
AC8H16OOH-BO2     -98-TMH  17O   4C   8     G     300.0    5000.0  1396.0      1
   3.67865808E1  3.66860516E-2 -1.26621795E-5  1.97813925E-9-1.15276762E-13    2
  -4.98167168E4  -1.59814026E2   1.32679918E0  1.19431729E-1 -8.60181983E-5    3
  3.13764909E-8-4.61134469E-12  -3.75654653E4   3.05379851E1                   4
IC8KETAB          -THERMH  16O   3C   8     G     300.0    5000.0  1399.0      1
   3.38088926E1  3.44048922E-2 -1.18434104E-5    1.846921E-9-1.07495221E-13    2
  -6.54736771E4  -1.47484577E2  -1.15294347E0  1.19597412E-1 -9.17731724E-5    3
  3.61323541E-8-5.76238463E-12  -5.37517462E4   3.89197707E1                   4
IC4H9             -THERMH   9C   4          G     300.0    5000.0  1393.0      1
   1.22753163E1  1.95174006E-2 -6.68773001E-6  1.03935193E-9-6.03374502E-14    2
    1.9239536E3  -4.15827559E1   -1.0083747E0  5.01087003E-2  -3.4194121E-5    3
  1.26025783E-8-1.97552053E-12   6.65557909E3   3.00386204E1                   4
TC4H9             -THERMH   9C   4          G     300.0    5000.0  1381.0      1
   9.94382113E0  2.16693078E-2 -7.47001405E-6  1.16578454E-9-6.78791834E-14    2
  -1.89693616E2  -2.88692286E1  -2.73729203E0  4.55390345E-2 -2.26390939E-5    3
  4.56951052E-9-1.55321795E-13   4.87138887E3   4.14144877E1                   4
IC4H8             -THERMH   8C   4          G     300.0    5000.0  1388.0      1
    1.1225833E1  1.81795798E-2 -6.20348592E-6 9.61444458E-10-5.57088057E-14    2
  -7.69983777E3  -3.73306704E1  9.38433173E-1  3.90547287E-2 -2.16437148E-5    3
  5.87267077E-9-6.14435479E-13  -3.74817891E3   1.91442985E1                   4
IC4H7             -THERMH   7C   4          G     300.0    5000.0  1393.0      1
   1.16382753E1  1.57681299E-2 -5.38538858E-6 8.35172927E-10-4.84141083E-14    2
   1.05471642E4   -3.9025989E1 -7.20881697E-4   4.3649573E-2 -3.16385877E-5    3
  1.23984983E-8 -2.0437836E-12   1.45717785E4    2.3323434E1                   4
IC4H7O            -THERMH   7O   1C   4     G     300.0    5000.0  1386.0      1
   1.33457615E1  1.61218588E-2 -5.44376403E-6 8.38199374E-10 -4.8360828E-14    2
   6.11443644E2  -4.36818838E1   1.74700687E0  4.07783436E-2 -2.44750243E-5    3
  7.06502958E-9-7.51570589E-13   4.86979233E3   1.94535999E1                   4
IC4H6OH           -THERMH   7O   1C   4     G     300.0    5000.0  1390.0      1
   1.40310926E1  1.55317541E-2 -5.32754961E-6 8.28785902E-10-4.81545257E-14    2
  -7.69378228E3  -4.76555306E1  8.63371227E-1  4.68711282E-2 -3.43580339E-5    3
  1.33031052E-8-2.13914975E-12  -3.14948305E3   2.29075523E1                   4
IC3H7CHO          -THERMH   8O   1C   4     G     300.0    5000.0  1391.0      1
   1.37501656E1  1.83126722E-2 -6.28572629E-6 9.78250756E-10-5.68538653E-14    2
  -3.26936771E4  -4.77270548E1 -2.73021382E-1  4.89696307E-2 -3.12770049E-5    3
  1.00052945E-8-1.27512074E-12  -2.76054737E4   2.83451139E1                   4
TC3H6CHO                H   7O   1C   4     G     300.0    5000.0  1389.0      1
   1.31013047E1  1.66391865E-2 -5.68457623E-6 8.81808351E-10-5.11290161E-14    2
  -1.30638647E4  -4.42705813E1   1.87052762E0  4.14869677E-2 -2.66815701E-5    3
   9.0153161E-9-1.27870633E-12  -8.97730744E3   1.66174178E1                   4
IC3H5CHO          -THERMH   6O   1C   4     G     300.0    5000.0  1396.0      1
   1.36203958E1  1.37917192E-2 -4.73370118E-6 7.36655226E-10-4.20097974E-14    2
  -2.00025274E4  -4.73184531E1  6.27183793E-1  4.66780254E-2 -3.74430631E-5    3
  1.58330542E-8-2.73952155E-12  -1.57203117E4   2.16034294E1                   4
TC3H6O2CHO        -THERMH   7O   3C   4     G     300.0    5000.0  1386.0      1
   1.85534443E1  1.68774389E-2 -5.90752965E-6 9.31518085E-10-5.46345187E-14    2
  -2.85447191E4  -6.82486667E1   2.17883383E0  5.41595832E-2 -3.83435886E-5    3
  1.38308104E-8-2.04190147E-12  -2.27394154E4   2.00751264E1                   4
TC3H6O2HCO        -THERMH   7O   3C   4     G     300.0    5000.0  1387.0      1
   2.06472678E1    1.485265E-2 -5.25104875E-6 8.33619219E-10-4.91256069E-14    2
  -2.88719869E4  -7.95951389E1   2.03864428E0  5.80421003E-2 -4.32123528E-5    3
  1.58792094E-8-2.32209543E-12  -2.24284673E4    2.0368099E1                   4
IC3H5CO           -THERMH   5O   1C   4     G     300.0    5000.0  1397.0      1
   1.30667437E1  1.16704244E-2 -3.99106523E-6 6.19498148E-10-3.59348249E-14    2
  -3.36519344E3   -4.3580309E1   1.85097069E0  4.18855846E-2 -3.62553731E-5    3
  1.65690659E-8-3.05850846E-12   1.70381441E2   1.53014433E1                   4
IC3H7CO           -THERMH   7O   1C   4     G     300.0    5000.0  1396.0      1
    1.2898734E1  1.66809722E-2 -5.67154574E-6 8.77024651E-10 -5.0742614E-14    2
  -1.35090137E4  -4.12607668E1  4.33384289E-1  4.46235649E-2 -2.91982909E-5    3
  9.72341221E-9-1.30412544E-12  -9.07000444E3   2.60898982E1                   4
CH3COCH3          -THERMH   6O   1C   3     G     300.0    5000.0  1374.0      1
   9.91421984E0  1.46030709E-2 -5.06085765E-6 7.92682855E-10-4.62739645E-14    2
  -3.11167423E4  -2.86113215E1   1.30767163E0  2.92021742E-2 -1.19045617E-5    3
 6.52150087E-10 4.67751203E-13  -2.75328269E4   1.96395025E1                   4
CH2OH             120186H   3O   1C   1     G     250.0    4000.0  1000.0      1
      6.32752E0    3.608271E-3   -3.201547E-7   -1.93875E-10   3.509705E-14    2
    -4.474509E3    -8.329366E0     2.862628E0    1.001527E-2   -5.285436E-7    3
    -5.13854E-9   2.246041E-12    -3.349679E3     1.039794E1                   4
CH3O2H            -THERMH   4O   2C   1     G     300.0    5000.0  1390.0      1
   8.43117091E0  8.06817909E-3 -2.77094921E-6 4.31332243E-10-2.50692146E-14    2
  -1.96678771E4  -1.91170629E1   3.23442817E0  1.90129767E-2 -1.13386287E-5    3
  3.40306653E-9-4.11830222E-13  -1.77197926E4   9.25623949E0                   4
CH2CCH2OH         -THERMH   5O   1C   3     G     300.0    5000.0  1372.0      1
   9.70702027E0   1.1397266E-2 -3.77993962E-6 5.75209277E-10-3.29229125E-14    2
   9.13212884E3  -2.25012933E1   2.88422544E0  2.42428071E-2 -1.14152268E-5    3
  1.71775334E-9 1.42177454E-13   1.17935615E4   1.52102335E1                   4
CH4               121286H   4C   1          G     300.0    5000.0  1000.0      1
     1.683479E0    1.023724E-2   -3.875129E-6   6.785585E-10  -4.503423E-14    2
    -1.008079E4     9.623395E0    7.787415E-1    1.747668E-2   -2.783409E-5    3
    3.049708E-8  -1.223931E-11    -9.825229E3     1.372219E1                   4
N                 L-6-88N   1               G     200.0    6000.0  1000.0      1
    2.4159429E0   1.7489065E-4  -1.1902369E-7  3.0226245E-11 -2.0360982E-15    2
    5.6133773E4    4.6496096E0          2.5E0          0.0E0          0.0E0    3
          0.0E0          0.0E0    5.6104637E4    4.1939087E0                   4
CH                121286H   1C   1          G     300.0    5000.0  1000.0      1
     2.196223E0    2.340381E-3   -7.058201E-7   9.007582E-11   -3.85504E-15    2
     7.086723E4     9.178373E0     3.200202E0    2.072876E-3   -5.134431E-6    3
     5.73389E-9  -1.955533E-12     7.045259E4     3.331588E0                   4
NH                -AND94H   1N   1          G     200.0    6000.0  1000.0      1
    2.7836928E0    1.329843E-3  -4.2478047E-7  7.8348501E-11  -5.504447E-15    2
    4.2120848E4    5.7407799E0    3.4929085E0   3.1179198E-4  -1.4890484E-6    3
   2.4816442E-9 -1.0356967E-12    4.1880629E4    1.8483278E0                   4
NH2               -AND89H   2N   1          G     200.0    6000.0  1000.0      1
    2.8347421E0   3.2073082E-3  -9.3390804E-7  1.3702953E-10 -7.9206144E-15    2
    2.2171957E4    6.5204163E0    4.2040029E0  -2.1061385E-3   7.1068348E-6    3
  -5.6115197E-9  1.6440717E-12     2.188591E4  -1.4184248E-1                   4
NH3               J-6-77H   3N   1          G     200.0    6000.0  1000.0      1
    2.6344521E0    5.666256E-3  -1.7278676E-6  2.3867161E-10 -1.2578786E-14    2
   -6.5446958E3    6.5662928E0    4.2860274E0   -4.660523E-3   2.1718513E-5    3
  -2.2808887E-8  8.2638046E-12   -6.7417285E3  -6.2537277E-1                   4
NNH               T07-93H   1N   2          G     200.0    6000.0  1000.0      1
    3.7667544E0   2.8915082E-3   -1.041662E-6  1.6842594E-10 -1.0091896E-14    2
    2.8650697E4    4.4705067E0    4.3446927E0  -4.8497072E-3   2.0059459E-5    3
  -2.1726464E-8  7.9469539E-12    2.8791973E4     2.977941E0                   4
NO                      O   1N   1          G     300.0    5000.0  1398.0      1
   3.30745011E0  1.02991918E-3 -3.14459911E-7 4.42658687E-11-2.38080924E-15    2
   9.81096664E3   6.16141074E0   3.20971914E0  1.19199975E-3 -4.00785061E-7    3
 5.80069229E-11-1.77636894E-15    9.8540627E3   6.71393297E0                   4
NO2                     O   2N   1          G     300.0    5000.0  1383.0      1
   5.08901008E0  1.69784421E-3 -6.03307083E-7  9.6096655E-11-5.67606846E-15    2
   2.09363765E3  -1.23479099E0   2.90033728E0  6.71842134E-3 -4.94876323E-6    3
  1.78620221E-9 -2.5552769E-13   2.85784016E3   1.05442712E1                   4
N2O                     O   1N   2          G     300.0    5000.0  1685.0      1
   5.48501364E0  1.95042456E-3 -8.32870915E-7 1.49111448E-10-9.52979802E-15    2
   7.79717629E3  -6.13258709E0    3.1222226E0  6.29213183E-3  -3.1529818E-6    3
 3.43392278E-10 7.79115066E-14   8.68573433E3   6.91366015E0                   4
HNO                     H   1O   1N   1     G     300.0    5000.0  1364.0      1
    4.0210407E0  2.53315889E-3 -8.74528443E-7 1.36586699E-10-7.95635346E-15    2
   1.04692469E4   2.52220203E0   3.47906296E0  2.30702523E-3  9.45658257E-7    3
 -1.34347932E-9 3.44493795E-13   1.08271384E4   5.99651372E0                   4
CN                -HBH92C   1N   1          G     200.0    6000.0  1000.0      1
    3.7459805E0   4.3450775E-5   2.9705984E-7 -6.8651806E-11  4.4134173E-15    2
    5.1536188E4    2.7867601E0    3.6129351E0  -9.5551327E-4   2.1442977E-6    3
 -3.1516323E-10 -4.6430356E-13     5.170834E4    3.9804995E0                   4
HCN               GRI-98H   1C   1N   1     G     200.0    6000.0  1000.0      1
    3.8022392E0   3.1464228E-3  -1.0632185E-6  1.6619757E-10  -9.799757E-15    2
    1.4407292E4    1.5754601E0    2.2589886E0    1.005117E-2  -1.3351763E-5    3
   1.0092349E-8 -3.0089028E-12    1.4712633E4    8.9164419E0                   4
HCNN              SRI-94H   1C   1N   2     G     300.0    5000.0  1000.0      1
    5.8946362E0   3.9895959E-3   -1.598238E-6  2.9249395E-10 -2.0094686E-14    2
    5.3452941E4   -5.1030502E0    2.5243194E0   1.5960619E-2  -1.8816354E-5    3
    1.212554E-8 -3.2357378E-12    5.4261984E4     1.167587E1                   4
HCNO              BDEA94H   1O   1C   1N   1G     300.0    5000.0  1382.0      1
   6.59860456E0  3.02778626E-3 -1.07704346E-6 1.71666528E-10-1.01439391E-14    2
   1.79661339E4  -1.03306599E1   2.64727989E0  1.27505342E-2 -1.04794236E-5    3
  4.41432836E-9-7.57521466E-13   1.92990252E4   1.07332972E1                   4
HOCN              BDEA94H   1O   1C   1N   1G     300.0    5000.0  1368.0      1