THERMO ALL
   200.000  1000.000  5000.000
H                 120186H   1               G  0300.00   5000.00  1000.00      1
 0.02500000E+02 0.00000000E+00 0.00000000E+00 0.00000000E+00 0.00000000E+00    2
 0.02547163E+06-0.04601176E+01 0.02500000E+02 0.00000000E+00 0.00000000E+00    3
 0.00000000E+00 0.00000000E+00 0.02547163E+06-0.04601176E+01                   4
H2                121286H   2               G  0300.00   5000.00  1000.00      1
 0.02991423E+02 0.07000644E-02-0.05633829E-06-0.09231578E-10 0.01582752E-13    2
-0.08350340E+04-0.01355110E+02 0.03298124E+02 0.08249442E-02-0.08143015E-05    3
-0.09475434E-09 0.04134872E-11-0.01012521E+05-0.03294094E+02                   4
O                 120186O   1               G  0300.00   5000.00  1000.00      1
 0.02542060E+02-0.02755062E-03-0.03102803E-07 0.04551067E-10-0.04368052E-14    2
 0.02923080E+06 0.04920308E+02 0.02946429E+02-0.01638166E-01 0.02421032E-04    3
-0.01602843E-07 0.03890696E-11 0.02914764E+06 0.02963995E+02                   4
O2                121386O   2               G  0300.00   5000.00  1000.00      1
 0.03697578E+02 0.06135197E-02-0.01258842E-05 0.01775281E-09-0.01136435E-13    2
-0.01233930E+05 0.03189166E+02 0.03212936E+02 0.01127486E-01-0.05756150E-05    3
 0.01313877E-07-0.08768554E-11-0.01005249E+05 0.06034738E+02                   4
OH         7/13/ 0 RUCICH   1O   1    0    0G   300.000  5000.000 1710.000     1
 2.85376040E+00 1.02994334E-03-2.32666477E-07 1.93750704E-11-3.15759847E-16    2
 3.69949720E+03 5.78756825E+00 3.41896226E+00 3.19255801E-04-3.08292717E-07    3
 3.64407494E-10-1.00195479E-13 3.45264448E+03 2.54433372E+00                   4
H2O                20387H   2O   1          G  0300.00   5000.00  1000.00      1
 0.02672146E+02 0.03056293E-01-0.08730260E-05 0.01200996E-08-0.06391618E-13    2
-0.02989921E+06 0.06862817E+02 0.03386842E+02 0.03474982E-01-0.06354696E-04    3
 0.06968581E-07-0.02506588E-10-0.03020811E+06 0.02590233E+02                   4
N2                121286N   2               G  0300.00   5000.00  1000.00      1
 0.02926640E+02 0.01487977E-01-0.05684761E-05 0.01009704E-08-0.06753351E-13    2
-0.09227977E+04 0.05980528E+02 0.03298677E+02 0.01408240E-01-0.03963222E-04    3
 0.05641515E-07-0.02444855E-10-0.01020900E+05 0.03950372E+02                   4
HO2               L 5/89H   1O   2          G   200.000  3500.000  1000.000    1
 4.01721090E+00 2.23982013E-03-6.33658150E-07 1.14246370E-10-1.07908535E-14    2
 1.11856713E+02 3.78510215E+00 4.30179801E+00-4.74912051E-03 2.11582891E-05    3
-2.42763894E-08 9.29225124E-12 2.94808040E+02 3.71666245E+00                   4
H2O2              120186H   2O   2          G  0300.00   5000.00  1000.00      1
 0.04573167E+02 0.04336136E-01-0.01474689E-04 0.02348904E-08-0.01431654E-12    2
-0.01800696E+06 0.05011370E+01 0.03388754E+02 0.06569226E-01-0.01485013E-05    3
-0.04625806E-07 0.02471515E-10-0.01766315E+06 0.06785363E+02                   4
CO                121286C   1O   1          G  0300.00   5000.00  1000.00      1
 0.03025078E+02 0.01442689E-01-0.05630828E-05 0.01018581E-08-0.06910952E-13    2
-0.01426835E+06 0.06108218E+02 0.03262452E+02 0.01511941E-01-0.03881755E-04    3
 0.05581944E-07-0.02474951E-10-0.01431054E+06 0.04848897E+02                   4
CO2               121286C   1O   2          G  0300.00   5000.00  1000.00      1
 0.04453623E+02 0.03140169E-01-0.01278411E-04 0.02393997E-08-0.01669033E-12    2
-0.04896696E+06-0.09553959E+01 0.02275725E+02 0.09922072E-01-0.01040911E-03    3
 0.06866687E-07-0.02117280E-10-0.04837314E+06 0.01018849E+03                   4
CH2O              121286C   1H   2O   1     G  0300.00   5000.00  1000.00      1
 0.02995606E+02 0.06681321E-01-0.02628955E-04 0.04737153E-08-0.03212517E-12    2
-0.01532037E+06 0.06912572E+02 0.01652731E+02 0.01263144E+00-0.01888168E-03    3
 0.02050031E-06-0.08413237E-10-0.01486540E+06 0.01378482E+03                   4
HCO               121286H   1C   1O   1     G  0300.00   5000.00  1000.00      1
 0.03557271E+02 0.03345573E-01-0.01335006E-04 0.02470573E-08-0.01713851E-12    2
 0.03916324E+05 0.05552299E+02 0.02898330E+02 0.06199147E-01-0.09623084E-04    3
 0.01089825E-06-0.04574885E-10 0.04159922E+05 0.08983614E+02                   4
CH3O              121686C   1H   3O   1     G  0300.00   3000.00  1000.00      1
 0.03770800E+02 0.07871497E-01-0.02656384E-04 0.03944431E-08-0.02112616E-12    2
 0.01278325E+04 0.02929575E+02 0.02106204E+02 0.07216595E-01 0.05338472E-04    3
-0.07377636E-07 0.02075611E-10 0.09786011E+04 0.01315218E+03                   4
CH4               121286C   1H   4          G  0300.00   5000.00  1000.00      1
 0.01683479E+02 0.01023724E+00-0.03875129E-04 0.06785585E-08-0.04503423E-12    2
-0.01008079E+06 0.09623395E+02 0.07787415E+01 0.01747668E+00-0.02783409E-03    3
 0.03049708E-06-0.01223931E-09-0.09825229E+05 0.01372219E+03                   4
CH3               121286C   1H   3          G  0300.00   5000.00  1000.00      1
 0.02844052E+02 0.06137974E-01-0.02230345E-04 0.03785161E-08-0.02452159E-12    2
 0.01643781E+06 0.05452697E+02 0.02430443E+02 0.01112410E+00-0.01680220E-03    3
 0.01621829E-06-0.05864953E-10 0.01642378E+06 0.06789794E+02                   4
C2H6       1/14/95 THERMC   2H   6    0    0G   300.000  5000.000 1384.000     1
 6.10683385E+00 1.29236361E-02-4.42527196E-06 6.87391726E-10-3.98901732E-14    2
-1.37500014E+04-1.30081250E+01-2.52854344E-02 2.40764754E-02-1.11893472E-05    3
 2.08340901E-09-5.29868616E-14-1.12345534E+04 2.11648750E+01                   4
C2H5       1/14/95 THERMC   2H   5    0    0G   300.000  5000.000 1394.000     1
 5.76650825E+00 1.06020320E-02-3.60972785E-06 5.58491264E-10-3.23178241E-14    2
 1.13578263E+04-7.95853559E+00 7.21130761E-02 2.32221131E-02-1.45619117E-05    3
 5.04902267E-09-7.68385313E-13 1.34589464E+04 2.29575692E+01                   4
C2H4              121286C   2H   4          G  0300.00   5000.00  1000.00      1
 0.03528419E+02 0.01148518E+00-0.04418385E-04 0.07844601E-08-0.05266848E-12    2
 0.04428289E+05 0.02230389E+02-0.08614880E+01 0.02796163E+00-0.03388677E-03    3
 0.02785152E-06-0.09737879E-10 0.05573046E+05 0.02421149E+03                   4
C2H3               12787C   2H   3          G  0300.00   5000.00  1000.00      1
 0.05933468E+02 0.04017746E-01-0.03966740E-05-0.01441267E-08 0.02378644E-12    2
 0.03185435E+06-0.08530313E+02 0.02459276E+02 0.07371476E-01 0.02109873E-04    3
-0.01321642E-07-0.01184784E-10 0.03335225E+06 0.01155620E+03                   4
C2H2              121386C   2H   2          G  0300.00   5000.00  1000.00      1
 0.04436770E+02 0.05376039E-01-0.01912817E-04 0.03286379E-08-0.02156710E-12    2
 0.02566766E+06-0.02800338E+02 0.02013562E+02 0.01519045E+00-0.01616319E-03    3
 0.09078992E-07-0.01912746E-10 0.02612444E+06 0.08805378E+02                   4
CH3CHO            120186C   2O   1H   4     G  0300.00   5000.00  1000.00      1
 0.05868650E+02 0.01079424E+00-0.03645530E-04 0.05412912E-08-0.02896844E-12    2
-0.02264569E+06-0.06012946E+02 0.02505695E+02 0.01336991E+00 0.04671953E-04    3
-0.01128140E-06 0.04263566E-10-0.02124589E+06 0.01335089E+03                   4
CH3CO             120186C   2H   3O   1     G  0300.00   5000.00  1000.00      1
 0.05612279E+02 0.08449886E-01-0.02854147E-04 0.04238376E-08-0.02268404E-12    2
-0.05187863E+05-0.03274949E+02 0.03125278E+02 0.09778220E-01 0.04521448E-04    3
-0.09009462E-07 0.03193718E-10-0.04108508E+05 0.01122885E+03                   4
CH2CHO            110393O   1H   3C   2     G  0300.00   5000.00  1000.00      1
 0.05975670E+02 0.08130591E-01-0.02743624E-04 0.04070304E-08-0.02176017E-12    2
 0.04903218E+04-0.05045251E+02 0.03409062E+02 0.01073857E+00 0.01891492E-04    3
-0.07158583E-07 0.02867385E-10 0.01521477E+05 0.09558290E+02                   4
CH2CO             121686C   2H   2O   1     G  0300.00   5000.00  1000.00      1
 0.06038817E+02 0.05804840E-01-0.01920954E-04 0.02794485E-08-0.01458868E-12    2
-0.08583402E+05-0.07657581E+02 0.02974971E+02 0.01211871E+00-0.02345046E-04    3
-0.06466685E-07 0.03905649E-10-0.07632637E+05 0.08673553E+02                   4
HCCO               32387H   1C   2O   1     G  0300.00   4000.00  1000.00      1
 0.06758073E+02 0.02000400E-01-0.02027607E-05-0.01041132E-08 0.01965165E-12    2
 0.01901513E+06-0.09071262E+02 0.05047965E+02 0.04453478E-01 0.02268283E-05    3
-0.01482095E-07 0.02250742E-11 0.01965892E+06 0.04818439E+01                   4
C2H5O      3/12/95 THERMC   2H   5O   1    0G   300.000  5000.000 1389.000     1
 7.87339772E+00 1.13072907E-02-3.84421421E-06 5.94414105E-10-3.43894538E-14    2
-6.07274953E+03-1.73416790E+01 4.94420708E-01 2.71774434E-02-1.65909010E-05    3
 5.15204200E-09-6.48496915E-13-3.35252925E+03 2.28079378E+01                   4
C2H3O1-2   4/ 3/ 0 THERMC   2H   3O   1    0G   300.000  5000.000 1492.000     1
 6.88486471E+00 6.94720501E-03-2.23214698E-06 3.32190767E-10-1.87124555E-14    2
 1.26442200E+04-1.23842570E+01-1.62965122E+00 2.93455486E-02-2.43737550E-05    3
 1.00522325E-08-1.61259036E-12 1.52459425E+04 3.22782741E+01                   4
CH3COCH2   5/ 4/92 THERMC   3H   5O   1    0G   300.000  5000.000 1391.000     1
 1.02303975E+01 1.16494161E-02-4.01005537E-06 6.25205246E-10-3.63784362E-14    2
-8.44380462E+03-2.79197220E+01 1.80339187E+00 3.01407085E-02-1.93505552E-05    3
 6.38199034E-09-8.66103180E-13-5.37233261E+03 1.78046408E+01                   4
C2H3CHO    6/26/95 THERMC   3H   4O   1    0G   300.000  5000.000 1393.000     1
 1.04184959E+01 9.48963321E-03-3.29310529E-06 5.16279203E-10-3.01587291E-14    2
-1.49630281E+04-3.07235061E+01 2.92355162E-01 3.54321417E-02-2.94936324E-05    3
 1.28100124E-08-2.26144108E-12-1.16521584E+04 2.28878280E+01                   4
C2H3CO     4/ 3/ 0 THERMC   3H   3O   1    0G   300.000  5000.000 1402.000     1
 9.37467676E+00 7.91296900E-03-2.67198280E-06 4.11115430E-10-2.36978981E-14    2
 1.92969514E+03-2.40892696E+01 1.36242013E+00 3.15273972E-02-3.00218935E-05    3
 1.48167112E-08-2.87971530E-12 4.25770215E+03 1.72626546E+01                   4
C2H5CHO    6/26/95 THERMC   3H   6O   1    0G   300.000  5000.000 1378.000     1
 1.02427695E+01 1.39641989E-02-4.76248001E-06 7.38105706E-10-4.27759503E-14    2
-2.74143135E+04-2.85346843E+01 2.16308444E+00 2.95501264E-02-1.52446252E-05    3
 3.49503947E-09-2.38896627E-13-2.42260137E+04 1.61153348E+01                   4
C3H8       9/23/ 3 THERMC   3H   8    0    0G   300.000  5000.000 1387.000     1
 9.30903615E+00 1.73199401E-02-5.92006308E-06 9.18549779E-10-5.32650089E-14    2
-1.78511121E+04-2.87649046E+01-2.93546760E-01 3.63870253E-02-1.95049623E-05    3
 4.95900425E-09-4.55919788E-13-1.41148884E+04 2.41087380E+01                   4
NC3H7      9/23/ 3 THERMC   3H   7    0    0G   300.000  5000.000 1386.000     1
 8.87891888E+00 1.51926066E-02-5.19821700E-06 8.07099695E-10-4.68244711E-14    2
 7.21999864E+03-2.29020523E+01 4.89680103E-01 3.17745383E-02-1.69420751E-05    3
 4.27222899E-09-3.88106071E-13 1.04955773E+04 2.33241310E+01                   4
C3H6       5/27/97 THERMC   3H   6    0    0G   300.000  5000.000 1388.000     1
 8.01595958E+00 1.37023634E-02-4.66249733E-06 7.21254402E-10-4.17370126E-14    2
-1.87821271E+03-2.00160668E+01 3.94615444E-01 2.89107662E-02-1.54886808E-05    3
 3.88814209E-09-3.37890352E-13 1.06688164E+03 2.19003736E+01                   4
C3H5-A     5/27/97 THERMC   3H   5    0    0G   300.000  5000.000 1397.000     1
 8.45883958E+00 1.12695483E-02-3.83792864E-06 5.94059119E-10-3.43918030E-14    2
 1.63576092E+04-2.25809450E+01-5.29131958E-01 3.34559100E-02-2.53401027E-05    3
 1.02865754E-08-1.73258340E-12 1.93834226E+04 2.53067131E+01                   4
C3H4-A            101993H   4C   3          G  0300.00   4000.00  1400.00      1
 0.09776256E+02 0.05302138E-01-0.03701118E-05-0.03026386E-08 0.05089581E-12    2
 0.01954972E+06-0.03077061E+03 0.02539831E+02 0.01633437E+00-0.01764950E-04    3
-0.04647365E-07 0.01729131E-10 0.02251243E+06 0.09935702E+02                   4
C3H5O      7/20/95 THERMC   3H   5O   1    0G   300.000  5000.000 1380.000     1
 1.02551752E+01 1.14983720E-02-3.84645659E-06 5.88910346E-10-3.38557923E-14    2
 6.26560810E+03-2.77655042E+01 1.19822582E+00 3.05579837E-02-1.80630276E-05    3
 4.86150033E-09-4.19854562E-13 9.58217784E+03 2.15566221E+01                   4
NC3H7O2    7/19/ 0 THERMC   3H   7O   2    0G   300.000  5000.000 1384.000     1
 1.26327059E+01 1.69910726E-02-5.88866873E-06 9.22195396E-10-5.38230675E-14    2
-1.19194652E+04-3.85349297E+01 2.10731492E+00 3.96164986E-02-2.49491599E-05    3
 8.59450300E-09-1.31240330E-12-7.93745567E+03 1.89082748E+01                   4
C4H10      8/ 4/ 4 THERMC   4H  10    0    0G   300.000  5000.000 1392.000     1
 1.24940183E+01 2.17726258E-02-7.44272215E-06 1.15487023E-09-6.69712949E-14    2
-2.18403437E+04-4.45558921E+01-4.55756824E-01 4.80323389E-02-2.65497552E-05    3
 6.92544700E-09-6.38317504E-13-1.68960904E+04 2.64870966E+01                   4
C4H8-1     6/29/ 4 THERMC   4H   8    0    0G   300.000  5000.000 1391.000     1
 1.13456574E+01 1.80843428E-02-6.17276514E-06 9.56925815E-10-5.54586212E-14    2
-5.88659450E+03-3.64627206E+01-8.33377133E-01 4.54141123E-02-2.97609030E-05    3
 1.03518354E-08-1.51975733E-12-1.49161811E+03 2.94327905E+01                   4
PC4H9      8/ 4/ 4 THERMC   4H   9    0    0G   300.000  5000.000 1391.000     1
 1.20779744E+01 1.96264778E-02-6.71302199E-06 1.04206424E-09-6.04469282E-14    2
 3.22550473E+03-3.87719384E+01 3.20730933E-01 4.34654454E-02-2.40584970E-05    3
 6.28245308E-09-5.80113166E-13 7.71490893E+03 2.57301085E+01                   4
C4H71-3    4/ 2/97 THERMC   4H   7    0    0G   300.000  5000.000 1392.000     1
 1.09470170E+01 1.63724387E-02-5.59896200E-06 8.69147693E-10-5.04214389E-14    2
 1.11181741E+04-3.54908400E+01-1.12475112E+00 4.34882854E-02-2.87750454E-05    3
 9.88046971E-09-1.40120341E-12 1.54420160E+04 2.97651156E+01                   4
C4H6       4/ 4/ 0 THERMC   4H   6    0    0G   300.000  5000.000 1398.000     1  
 1.11633789E+01 1.37163965E-02-4.69715783E-06 7.29693836E-10-4.23486203E-14    2  
 7.79039770E+03-3.69847949E+01-1.43095121E+00 4.78706062E-02-4.15446800E-05    3  
 1.91549552E-08-3.57158507E-12 1.17551314E+04 2.90825833E+01                   4
PC4H9O2    7/19/ 0 THERMC   4H   9O   2    0G   300.000  5000.000 1385.000     1
 1.57845448E+01 2.15210910E-02-7.44909017E-06 1.16558071E-09-6.79885609E-14    2
-1.60146054E+04-5.40388525E+01 1.94363650E+00 5.15513163E-02-3.28284400E-05    3
 1.13064860E-08-1.70118606E-12-1.08358103E+04 2.13503149E+01                   4
C4H7O      4/ 3/ 0 THERMC   4H   7O   1    0G   300.000  5000.000 1395.000     1
 1.53137780E+01 1.43427017E-02-4.81625517E-06 7.39574839E-10-4.26140814E-14    2
-7.29342884E+02-5.52937859E+01-1.60619192E+00 5.58562682E-02-4.35595767E-05    3
 1.70589279E-08-2.65635180E-12 4.85090326E+03 3.47112559E+01                   4
C4H8OOH1-3 7/19/ 0 THERMC   4H   9O   2    0G   300.000  5000.000 1377.000     1
 1.76442170E+01 1.91706536E-02-6.57168641E-06 1.02246571E-09-5.94304735E-14    2
-1.01859280E+04-6.17115813E+01 1.94106276E+00 5.18789351E-02-3.10411683E-05    3
 8.63568881E-09-8.42841994E-13-4.34315962E+03 2.40230471E+01                   4
C4H8OOH1-3O2 7/19/ 0 TRMC   4H   9O   4    0G   300.000  5000.000 1387.000     1
 2.23244015E+01 2.05474775E-02-7.19076348E-06 1.13361536E-09-6.64744383E-14    2
-3.05468277E+04-8.32666070E+01 2.22400728E+00 7.04994620E-02-5.66978827E-05    3
 2.42627751E-08-4.29715459E-12-2.37391490E+04 2.38371533E+01                   4
NC4KET13   7/19/ 0 THERMC   4H   8O   3    0G   300.000  5000.000 1386.000     1
 1.96430808E+01 1.80940566E-02-6.33063232E-06 9.97860399E-10-5.85076458E-14    2
-4.59588851E+04-7.16905094E+01 2.74883461E+00 5.86936745E-02-4.49605895E-05    3
 1.83200130E-08-3.11765369E-12-4.01065878E+04 1.88072090E+01                   4
NC3H7CHO   9/27/95 THERMC   4H   8O   1    0G   300.000  5000.000 1378.000     1
 1.35988068E+01 1.81652474E-02-6.17844458E-06 9.55980208E-10-5.53442958E-14    2
-3.15845348E+04-4.51790228E+01 1.87415959E+00 4.19240315E-02-2.35148779E-05    3
 6.26913673E-09-6.09443908E-13-2.71032194E+04 1.91568574E+01                   4
NC3H7CO    9/27/95 THERMC   4H   7O   1    0G   300.000  5000.000 1380.000     1
 1.30026331E+01 1.63104877E-02-5.57642899E-06 8.65670629E-10-5.02255667E-14    2
-1.25523385E+04-4.02608515E+01 2.67256826E+00 3.71198825E-02-2.06862859E-05    3
 5.48873888E-09-5.35864183E-13-8.58050888E+03 1.64848950E+01                   4
C5H11-1    8/ 4/ 4 THERMC   5H  11    0    0G   300.000  5000.000 1396.000     1
 1.54992372E+01 2.38273176E-02-8.13845161E-06 1.26220569E-09-7.31730066E-14    2
-1.00988975E+03-5.58563592E+01-9.94216435E-01 5.99860809E-02-3.78318587E-05    3
 1.21310895E-08-1.57042863E-12 4.97697538E+03 3.35998032E+01                   4
C6H13-1    5/ 8/ 6 THERMC   6H  13    0    0G   300.000  5000.000 1390.000     1
 1.85385470E+01 2.83107962E-02-9.65307246E-06 1.49547585E-09-8.66336064E-14    2
-5.09299041E+03-7.11436086E+01-2.04871465E-01 6.83801272E-02-4.14447912E-05    3
 1.26155802E-08-1.53120058E-12 1.83280393E+03 3.09129950E+01                   4
C6H12-1    5/ 8/ 6 THERMC   6H  12    0    0G   300.000  5000.000 1392.000     1
 1.78337529E+01 2.67377658E-02-9.10036773E-06 1.40819768E-09-8.15124244E-14    2
-1.42062860E+04-6.83818851E+01-1.35275205E+00 6.98655426E-02-4.59408022E-05    3
 1.56967343E-08-2.21296175E-12-7.34368617E+03 3.53120691E+01                   4
NC4H9CHO   2/29/96 THERMC   5H  10O   1    0G   300.000  5000.000 1381.000     1
 1.67965163E+01 2.25684519E-02-7.67631588E-06 1.18769369E-09-6.87545554E-14    2
-3.56826080E+04-6.09063312E+01 1.59663472E+00 5.43541416E-02-3.21020651E-05    3
 9.35773559E-09-1.06688932E-12-2.99841025E+04 2.21281498E+01                   4
NC4H9CO    2/29/96 THERMC   5H   9O   1    0G   300.000  5000.000 1382.000     1
 1.61782939E+01 2.07991920E-02-7.11787892E-06 1.10559975E-09-6.41697187E-14    2
-1.66537752E+04-5.58943579E+01 2.43530238E+00 4.93682376E-02-2.89883082E-05    3
 8.42863812E-09-9.68287172E-13-1.14675541E+04 1.92695879E+01                   4
NC3H7COCH2 2/22/96 THERMC   5H   9O   1    0G   300.000  5000.000 1389.000     1
 1.61502419E+01 2.14093466E-02-7.36059614E-06 1.14656816E-09-6.66712722E-14    2
-1.76968561E+04-5.83864884E+01 9.58299271E-01 5.68162532E-02-3.99112781E-05    3
 1.52671514E-08-2.49221047E-12-1.23062238E+04 2.34112884E+01                   4
C7H15-1    7/19/ 0 THERMC   7H  15    0    0G   300.000  5000.000 1390.000     1
 2.17940709E+01 3.26280243E-02-1.11138244E-05 1.72067148E-09-9.96366999E-14    2
-9.20938221E+03-8.64954311E+01-4.99570406E-01 8.08826467E-02-5.00532754E-05    3
 1.56549308E-08-1.96616227E-12-1.04590223E+03 3.46564011E+01                   4
C7H14-1    1/31/ 7 THERMC   7H  14    0    0G   300.000  5000.000 1385.000     1
 2.17652275E+01 3.00551182E-02-1.00589787E-05 1.54165135E-09-8.87552652E-14    2
-1.86065113E+04-8.82576939E+01-1.43560664E+00 8.14172405E-02-5.27531458E-05    3
 1.74298187E-08-2.33063893E-12-1.02567298E+04 3.73685256E+01                   4
C7H15O2-1  7/19/ 0 THERMC   7H  15O   2    0G   300.000  5000.000 1388.000     1
 2.52656556E+01 3.50803587E-02-1.21178801E-05 1.89360806E-09-1.10354125E-13    2
-2.81113392E+04-1.00704794E+02 1.20888552E+00 8.84061706E-02-5.79861260E-05    3
 2.03574689E-08-3.06460336E-12-1.92918765E+04 2.98117097E+01                   4
C7H14OOH1-3 7/19/0 THERMC   7H  15O   2    0G   300.000  5000.000 1383.000     1
 2.72290222E+01 3.24921901E-02-1.11259758E-05 1.72928878E-09-1.00428326E-13    2
-2.24977070E+04-1.08901784E+02 1.11146206E+00 8.91595392E-02-5.67352382E-05    3
 1.78890094E-08-2.22260206E-12-1.29868314E+04 3.29200052E+01                   4
NC5H11CHO  2/29/96 THERMC   6H  12O   1    0G   300.000  5000.000 1384.000     1
 1.98891043E+01 2.71869340E-02-9.27391515E-06 1.43744158E-09-8.33090761E-14    2
-3.97523444E+04-7.60741671E+01 1.37517192E+00 6.65669689E-02-4.04423050E-05    3
 1.23836270E-08-1.52905857E-12-3.28740986E+04 2.48343934E+01                   4
NC5H11CO   2/29/96 THERMC   6H  11O   1    0G   300.000  5000.000 1383.000     1
 1.94783812E+01 2.50466029E-02-8.54861346E-06 1.32557944E-09-7.68503296E-14    2
-2.07923937E+04-7.21995578E+01 2.14479069E+00 6.17863563E-02-3.74134690E-05    3
 1.13283795E-08-1.36917698E-12-1.43451172E+04 2.23128045E+01                   4
NC4H9COCH2 2/22/96 THERMC   6H  11O   1    0G   300.000  5000.000 1387.000     1
 1.98575871E+01 2.52406370E-02-8.72522623E-06 1.36422047E-09-7.95374883E-14    2
-2.20531958E+04-7.71140999E+01 6.57240675E-01 6.91820222E-02-4.79956182E-05    3
 1.78114857E-08-2.80456388E-12-1.51806661E+04 2.65180216E+01                   4
C4H7OOH1-4  4/1/96 THERMC   4H   8O   2    0G   300.000  5000.000 1393.000     1
 1.66978343E+01 1.80578399E-02-6.22476839E-06 9.71479434E-10-5.65686551E-14    2
-1.85344720E+04-5.76609547E+01 1.79804670E+00 5.23302551E-02-3.64638246E-05    3
 1.31971888E-08-1.97165993E-12-1.32846748E+04 2.25862038E+01                   4
C4H7O1-4   4/ 1/96 THERMC   4H   7O   1    0G   300.000  5000.000 1393.000     1
 1.31417783E+01 1.64166051E-02-5.56949199E-06 8.60114769E-10-4.97230006E-14    2
 1.67967537E+03-4.16160087E+01-2.92647947E-01 4.83149119E-02-3.48133220E-05    3
 1.31921468E-08-2.06485553E-12 6.29978883E+03 3.03629978E+01                   4
C12H26     4/24/ 7 THERMC  12H  26    0    0G   300.000  5000.000 1391.000     1
 3.85095037E+01 5.63550048E-02-1.91493200E-05 2.96024862E-09-1.71244150E-13    2
-5.48843465E+04-1.72670922E+02-2.62181594E+00 1.47237711E-01-9.43970271E-05    3
 3.07441268E-08-4.03602230E-12-4.00654253E+04 5.00994626E+01                   4
C12H25-2   4/24/ 7 THERMC  12H  25    0    0G   300.000  5000.000 1385.000     1
 3.79688268E+01 5.38719464E-02-1.82171263E-05 2.80774503E-09-1.62108420E-13    2
-3.12144988E+04-1.65805933E+02-1.36787089E+00 1.37355348E-01-8.24076158E-05    3
 2.36421562E-08-2.47435932E-12-1.67660539E+04 4.83521895E+01                   4
C12H25-3   4/24/ 7 THERMC  12H  25    0    0G   300.000  5000.000 1385.000     1
 3.79688268E+01 5.38719464E-02-1.82171263E-05 2.80774503E-09-1.62108420E-13    2
-3.12144988E+04-1.65805933E+02-1.36787089E+00 1.37355348E-01-8.24076158E-05    3
 2.36421562E-08-2.47435932E-12-1.67660539E+04 4.83521895E+01                   4 
C12H25-5   4/24/ 7 THERMC  12H  25    0    0G   300.000  5000.000 1385.000     1
 3.79688268E+01 5.38719464E-02-1.82171263E-05 2.80774503E-09-1.62108420E-13    2
-3.12144988E+04-1.65805933E+02-1.36787089E+00 1.37355348E-01-8.24076158E-05    3
 2.36421562E-08-2.47435932E-12-1.67660539E+04 4.83521895E+01                   4 
C12H25-6   4/24/ 7 THERMC  12H  25    0    0G   300.000  5000.000 1385.000     1
 3.79688268E+01 5.38719464E-02-1.82171263E-05 2.80774503E-09-1.62108420E-13    2
-3.12144988E+04-1.65805933E+02-1.36787089E+00 1.37355348E-01-8.24076158E-05    3
 2.36421562E-08-2.47435932E-12-1.67660539E+04 4.83521895E+01                   4 
C9H19-1    1/24/ 7 THERMC   9H  19    0    0G   300.000  5000.000 1382.000     1
 2.93856646E+01 4.00004260E-02-1.35256946E-05 2.08688263E-09-1.20659529E-13    2
-1.79529068E+04-1.24867974E+02-7.44688939E-01 1.04500526E-01-6.45658595E-05    3
 1.97938010E-08-2.38605801E-12-6.86457861E+03 3.91022488E+01                   4
C8H17-1    1/24/ 7 THERMC   8H  17    0    0G   300.000  5000.000 1382.000     1
 2.60183855E+01 3.57121517E-02-1.20292426E-05 1.85288176E-09-1.07034975E-13    2
-1.37623767E+04-1.06326391E+02-5.45387838E-01 9.23919620E-02-5.66222636E-05    3
 1.71716917E-08-2.03495438E-12-3.96985038E+03 3.82971150E+01                   4
C12H24-5   4/25/ 7 THERMC  12H  24    0    0G   300.000  5000.000 1391.000     1
 3.69736446E+01 5.31279321E-02-1.80658841E-05 2.79413561E-09-1.61690524E-13    2
-4.02493818E+04-1.62866429E+02-3.39231145E+00 1.44505415E-01-9.65458716E-05    3
 3.33095423E-08-4.70819673E-12-2.59204605E+04 5.49907232E+01                   4
C10H20-1   4/25/ 7 THERMC  10H  20    0    0G   300.000  5000.000 1392.000     1
 3.08753903E+01 4.39971526E-02-1.49425530E-05 2.30917678E-09-1.33551477E-13    2
-3.06937307E+04-1.32705172E+02-2.42901688E+00 1.19305598E-01-7.94489025E-05    3
 2.72736596E-08-3.82718373E-12-1.88708365E+04 4.70571383E+01                   4
C9H18-1    1/24/ 7 THERMC   9H  18    0    0G   300.000  5000.000 1384.000     1
 2.85904944E+01 3.84496673E-02-1.29467271E-05 1.99253400E-09-1.15029887E-13    2
-2.70175858E+04-1.22248274E+02-1.83816775E+00 1.05654044E-01-6.86557392E-05    3
 2.26624690E-08-3.02317051E-12-1.60457261E+04 4.25795424E+01                   4
C8H16-1    1/24/ 7 THERMC   8H  16    0    0G   300.000  5000.000 1384.000     1
 2.51778228E+01 3.42527893E-02-1.15030747E-05 1.76713382E-09-1.01895167E-13    2
-2.28120614E+04-1.05252884E+02-1.63703064E+00 9.35366795E-02-6.07059197E-05    3
 2.00471199E-08-2.67714057E-12-1.31512201E+04 3.99745995E+01                   4
C12H25O2-2 6/25/ 7 THERMC  12H  25O   2    0G   300.000  5000.000 1391.000     1
 4.15594442E+01 5.65861741E-02-1.94673569E-05 3.03391862E-09-1.76481347E-13    2
-5.14188102E+04-1.81492460E+02 7.19000677E-01 1.47857475E-01-9.76141389E-05    3
 3.37768226E-08-4.89238474E-12-3.66625786E+04 3.95787186E+01                   4
C12H25O2-5 6/25/ 7 THERMC  12H  25O   2    0G   300.000  5000.000 1391.000     1
 4.15594442E+01 5.65861741E-02-1.94673569E-05 3.03391862E-09-1.76481347E-13    2
-5.14188102E+04-1.81492460E+02 7.19000677E-01 1.47857475E-01-9.76141389E-05    3
 3.37768226E-08-4.89238474E-12-3.66625786E+04 3.95787186E+01                   4
C12H25O2-6 6/25/ 7 THERMC  12H  25O   2    0G   300.000  5000.000 1391.000     1
 4.15594442E+01 5.65861741E-02-1.94673569E-05 3.03391862E-09-1.76481347E-13    2
-5.14188102E+04-1.81492460E+02 7.19000677E-01 1.47857475E-01-9.76141389E-05    3
 3.37768226E-08-4.89238474E-12-3.66625786E+04 3.95787186E+01                   4
C8H17O2-1  2/14/ 7 THERMC   8H  17O   2    0G   300.000  5000.000 1381.000     1
 3.00077972E+01 3.69446469E-02-1.25858654E-05 1.95208235E-09-1.13252164E-13    2
-3.37682827E+04-1.24106742E+02 2.24948634E+00 9.54933554E-02-5.79618640E-05    3
 1.72379298E-08-1.98763385E-12-2.34446571E+04 2.72998832E+01                   4
C12OOH2-4  6/25/ 7 THERMC  12H  25O   2    0G   300.000  5000.000 1391.000     1
 4.31478861E+01 5.43644418E-02-1.85191146E-05 2.86784232E-09-1.66107732E-13    2
-4.53858698E+04-1.87427283E+02 5.43431244E-01 1.49159735E-01-9.74342364E-05    3
 3.20766697E-08-4.22022503E-12-3.01492983E+04 4.30097560E+01                   4
C12OOH5-3  6/25/ 7 THERMC  12H  25O   2    0G   300.000  5000.000 1391.000     1
 4.31478861E+01 5.43644418E-02-1.85191146E-05 2.86784232E-09-1.66107732E-13    2
-4.53858698E+04-1.87427283E+02 5.43431244E-01 1.49159735E-01-9.74342364E-05    3
 3.20766697E-08-4.22022503E-12-3.01492983E+04 4.30097560E+01                   4
C12OOH5-7  6/25/ 7 THERMC  12H  25O   2    0G   300.000  5000.000 1391.000     1
 4.31478861E+01 5.43644418E-02-1.85191146E-05 2.86784232E-09-1.66107732E-13    2
-4.53858698E+04-1.87427283E+02 5.43431244E-01 1.49159735E-01-9.74342364E-05    3
 3.20766697E-08-4.22022503E-12-3.01492983E+04 4.30097560E+01                   4
C12OOH6-4  6/25/ 7 THERMC  12H  25O   2    0G   300.000  5000.000 1391.000     1
 4.31478861E+01 5.43644418E-02-1.85191146E-05 2.86784232E-09-1.66107732E-13    2
-4.53858698E+04-1.87427283E+02 5.43431244E-01 1.49159735E-01-9.74342364E-05    3
 3.20766697E-08-4.22022503E-12-3.01492983E+04 4.30097560E+01                   4
C12OOH2-4O2    7/7/7    C  12H  25O   4    0G   300.000  5000.000 1390.000     1
 4.92017070E+01 5.48623886E-02-1.89948816E-05 2.97345006E-09-1.73515587E-13    2
-6.68466843E+04-2.17849024E+02 2.33638768E+00 1.58069852E-01-1.03826438E-04    3
 3.38978232E-08-4.39024721E-12-4.99499388E+04 3.60627903E+01                   4
C12OOH5-3O2    7/7/7    C  12H  25O   4    0G   300.000  5000.000 1390.000     1
 4.92017070E+01 5.48623886E-02-1.89948816E-05 2.97345006E-09-1.73515587E-13    2
-6.68466843E+04-2.17849024E+02 2.33638768E+00 1.58069852E-01-1.03826438E-04    3
 3.38978232E-08-4.39024721E-12-4.99499388E+04 3.60627903E+01                   4
C12OOH5-7O2    7/7/7    C  12H  25O   4    0G   300.000  5000.000 1390.000     1
 4.92017070E+01 5.48623886E-02-1.89948816E-05 2.97345006E-09-1.73515587E-13    2
-6.68466843E+04-2.17849024E+02 2.33638768E+00 1.58069852E-01-1.03826438E-04    3
 3.38978232E-08-4.39024721E-12-4.99499388E+04 3.60627903E+01                   4
C12OOH6-4O2    7/7/7    C  12H  25O   4    0G   300.000  5000.000 1390.000     1
 4.92017070E+01 5.48623886E-02-1.89948816E-05 2.97345006E-09-1.73515587E-13    2
-6.68466843E+04-2.17849024E+02 2.33638768E+00 1.58069852E-01-1.03826438E-04    3
 3.38978232E-08-4.39024721E-12-4.99499388E+04 3.60627903E+01                   4
C12O2-4    6/27/ 7      C  12H  24O   1    0G   300.000  5000.000 1393.000     1
 3.98039042E+01 5.46226175E-02-1.88738768E-05 2.95021760E-09-1.71975783E-13    2
-5.69548999E+04-1.80201836E+02-7.81407803E+00 1.68469989E-01-1.25041133E-04    3
 4.89353145E-08-7.94259062E-12-4.05580962E+04 7.48131467E+01                   4
C12O4-6    6/27/ 7      C  12H  24O   1    0G   300.000  5000.000 1393.000     1
 3.98039042E+01 5.46226175E-02-1.88738768E-05 2.95021760E-09-1.71975783E-13    2
-5.69548999E+04-1.80201836E+02-7.81407803E+00 1.68469989E-01-1.25041133E-04    3
 4.89353145E-08-7.94259062E-12-4.05580962E+04 7.48131467E+01                   4
C12O5-7    6/27/ 7      C  12H  24O   1    0G   300.000  5000.000 1393.000     1
 3.98039042E+01 5.46226175E-02-1.88738768E-05 2.95021760E-09-1.71975783E-13    2
-5.69548999E+04-1.80201836E+02-7.81407803E+00 1.68469989E-01-1.25041133E-04    3
 4.89353145E-08-7.94259062E-12-4.05580962E+04 7.48131467E+01                   4
C12KET2-4  6/28/ 7      C  12H  24O   3    0G   300.000  5000.000 1389.000     1